/*---------------------------------------------------------------------------*\
| =========                 |                                                 |
| \\      /  F ield         | OpenFOAM: The Open Source CFD Toolbox           |
|  \\    /   O peration     | Version:  2.3.1                                 |
|   \\  /    A nd           | Web:      www.OpenFOAM.org                      |
|    \\/     M anipulation  |                                                 |
\*---------------------------------------------------------------------------*/
Build  : 2.3.1-262087cdf8db
Exec   : simpleFoam -parallel
Date   : Aug 08 2017
Time   : 13:16:20
Host   : "CFD-LAP"
PID    : 6106
Case   : /home/tariq/Pure3D+AxiExamples/FlatPlateSA
nProcs : 24
Slaves : 
23
(
"CFD-LAP.6107"
"CFD-LAP.6108"
"CFD-LAP.6109"
"CFD-LAP.6110"
"CFD-LAP.6111"
"CFD-LAP.6112"
"CFD-LAP.6113"
"CFD-LAP.6114"
"CFD-LAP.6115"
"CFD-LAP.6116"
"CFD-LAP.6117"
"CFD-LAP.6118"
"CFD-LAP.6119"
"CFD-LAP.6120"
"CFD-LAP.6121"
"CFD-LAP.6122"
"CFD-LAP.6123"
"CFD-LAP.6124"
"CFD-LAP.6125"
"CFD-LAP.6126"
"CFD-LAP.6127"
"CFD-LAP.6128"
"CFD-LAP.6129"
)

Pstream initialized with:
    floatTransfer      : 0
    nProcsSimpleSum    : 0
    commsType          : nonBlocking
    polling iterations : 0
sigFpe : Enabling floating point exception trapping (FOAM_SIGFPE).
fileModificationChecking : Monitoring run-time modified files using timeStampMaster
allowSystemOperations : Allowing user-supplied system call operations

// * * * * * * * * * * * * * * * * * * * * * * * * * * * * * * * * * * * * * //
Create time

Create mesh for time = 0

Reading field p

Reading field U

Reading/calculating face flux field phi

Selecting incompressible transport model Newtonian
Selecting RAS turbulence model SpalartAllmaras
SpalartAllmarasCoeffs
{
    sigmaNut        0.66666;
    kappa           0.41;
    Cb1             0.1355;
    Cb2             0.622;
    Cw2             0.3;
    Cw3             2;
    Cv1             7.1;
    Cv2             5;
}

    Employing Ashford correction
No finite volume options present


SIMPLE: convergence criteria
    field p	 tolerance 1e-06
    field U	 tolerance 1e-06
    field "(k|epsilon|omega)"	 tolerance 1e-06


Starting time loop

Time = 1

DILUPBiCG:  Solving for Ux, Initial residual = 1, Final residual = 6.08234e-21, No Iterations 25
DILUPBiCG:  Solving for Uy, Initial residual = 1, Final residual = 6.17957e-21, No Iterations 25
DICPCG:  Solving for p, Initial residual = 1, Final residual = 3.99958e-10, No Iterations 1001
time step continuity errors : sum local = 4.27083e-13, global = 1.02181e-15, cumulative = 1.02181e-15
DILUPBiCG:  Solving for nuTilda, Initial residual = 1, Final residual = 4.19025e-21, No Iterations 30
ExecutionTime = 0.22 s  ClockTime = 0 s

Time = 2

DILUPBiCG:  Solving for Ux, Initial residual = 0.0397004, Final residual = 9.21666e-21, No Iterations 25
DILUPBiCG:  Solving for Uy, Initial residual = 0.647434, Final residual = 5.2715e-21, No Iterations 29
DICPCG:  Solving for p, Initial residual = 0.0122745, Final residual = 3.71257e-12, No Iterations 1001
time step continuity errors : sum local = 5.41861e-13, global = 1.66055e-15, cumulative = 2.68236e-15
DILUPBiCG:  Solving for nuTilda, Initial residual = 0.0865388, Final residual = 1.79682e-21, No Iterations 29
ExecutionTime = 0.33 s  ClockTime = 0 s

Time = 3

DILUPBiCG:  Solving for Ux, Initial residual = 0.0147621, Final residual = 8.41955e-21, No Iterations 25
DILUPBiCG:  Solving for Uy, Initial residual = 0.299445, Final residual = 8.31614e-21, No Iterations 27
DICPCG:  Solving for p, Initial residual = 0.0167856, Final residual = 1.74269e-12, No Iterations 1001
time step continuity errors : sum local = 4.85358e-13, global = -1.49187e-15, cumulative = 1.19049e-15
DILUPBiCG:  Solving for nuTilda, Initial residual = 0.0171941, Final residual = 5.10505e-21, No Iterations 28
ExecutionTime = 0.44 s  ClockTime = 0 s

Time = 4

DILUPBiCG:  Solving for Ux, Initial residual = 0.00774286, Final residual = 4.90957e-22, No Iterations 26
DILUPBiCG:  Solving for Uy, Initial residual = 0.119185, Final residual = 3.84637e-21, No Iterations 27
DICPCG:  Solving for p, Initial residual = 0.0320208, Final residual = 4.47402e-12, No Iterations 1001
time step continuity errors : sum local = 5.15092e-13, global = 6.99047e-16, cumulative = 1.88954e-15
DILUPBiCG:  Solving for nuTilda, Initial residual = 0.0102169, Final residual = 6.03995e-21, No Iterations 28
ExecutionTime = 0.55 s  ClockTime = 0 s

Time = 5

DILUPBiCG:  Solving for Ux, Initial residual = 0.00495651, Final residual = 3.76553e-21, No Iterations 24
DILUPBiCG:  Solving for Uy, Initial residual = 0.036928, Final residual = 9.99277e-21, No Iterations 26
DICPCG:  Solving for p, Initial residual = 0.1551, Final residual = 2.87412e-11, No Iterations 1001
time step continuity errors : sum local = 4.99455e-13, global = 3.20438e-16, cumulative = 2.20997e-15
DILUPBiCG:  Solving for nuTilda, Initial residual = 0.00693953, Final residual = 6.16027e-21, No Iterations 28
ExecutionTime = 0.65 s  ClockTime = 0 s

Time = 6

DILUPBiCG:  Solving for Ux, Initial residual = 0.00360709, Final residual = 1.77226e-21, No Iterations 24
DILUPBiCG:  Solving for Uy, Initial residual = 0.021657, Final residual = 2.701e-21, No Iterations 26
DICPCG:  Solving for p, Initial residual = 0.257813, Final residual = 2.53048e-11, No Iterations 1001
time step continuity errors : sum local = 4.93842e-13, global = -1.57552e-15, cumulative = 6.34454e-16
DILUPBiCG:  Solving for nuTilda, Initial residual = 0.00504106, Final residual = 6.36436e-21, No Iterations 28
ExecutionTime = 0.76 s  ClockTime = 0 s

Time = 7

DILUPBiCG:  Solving for Ux, Initial residual = 0.00282697, Final residual = 7.16736e-21, No Iterations 24
DILUPBiCG:  Solving for Uy, Initial residual = 0.0395292, Final residual = 1.33534e-21, No Iterations 27
DICPCG:  Solving for p, Initial residual = 0.104609, Final residual = 1.40974e-11, No Iterations 1001
time step continuity errors : sum local = 5.30482e-13, global = -1.78218e-15, cumulative = -1.14772e-15
DILUPBiCG:  Solving for nuTilda, Initial residual = 0.00382434, Final residual = 7.26901e-21, No Iterations 28
ExecutionTime = 0.87 s  ClockTime = 0 s

Time = 8

DILUPBiCG:  Solving for Ux, Initial residual = 0.00233446, Final residual = 7.63186e-21, No Iterations 25
DILUPBiCG:  Solving for Uy, Initial residual = 0.0601833, Final residual = 9.41613e-21, No Iterations 26
DICPCG:  Solving for p, Initial residual = 0.0523164, Final residual = 6.69225e-12, No Iterations 1001
time step continuity errors : sum local = 5.05568e-13, global = -1.81054e-15, cumulative = -2.95827e-15
DILUPBiCG:  Solving for nuTilda, Initial residual = 0.00299124, Final residual = 8.10393e-21, No Iterations 28
ExecutionTime = 0.97 s  ClockTime = 1 s

Time = 9

DILUPBiCG:  Solving for Ux, Initial residual = 0.0019723, Final residual = 1.5893e-21, No Iterations 25
DILUPBiCG:  Solving for Uy, Initial residual = 0.0526866, Final residual = 7.03883e-21, No Iterations 26
DICPCG:  Solving for p, Initial residual = 0.0576664, Final residual = 8.21082e-12, No Iterations 1001
time step continuity errors : sum local = 4.98442e-13, global = 1.31597e-15, cumulative = -1.6423e-15
DILUPBiCG:  Solving for nuTilda, Initial residual = 0.00239105, Final residual = 8.37186e-21, No Iterations 28
ExecutionTime = 1.08 s  ClockTime = 1 s

Time = 10

DILUPBiCG:  Solving for Ux, Initial residual = 0.0016905, Final residual = 3.65473e-21, No Iterations 24
DILUPBiCG:  Solving for Uy, Initial residual = 0.0326003, Final residual = 6.33399e-21, No Iterations 26
DICPCG:  Solving for p, Initial residual = 0.0902802, Final residual = 1.05417e-11, No Iterations 1001
time step continuity errors : sum local = 4.8242e-13, global = -3.62151e-15, cumulative = -5.2638e-15
DILUPBiCG:  Solving for nuTilda, Initial residual = 0.00198399, Final residual = 8.33587e-21, No Iterations 28
ExecutionTime = 1.19 s  ClockTime = 1 s

Time = 11

DILUPBiCG:  Solving for Ux, Initial residual = 0.00147597, Final residual = 2.49291e-21, No Iterations 24
DILUPBiCG:  Solving for Uy, Initial residual = 0.0219893, Final residual = 4.4993e-21, No Iterations 26
DICPCG:  Solving for p, Initial residual = 0.146314, Final residual = 1.83664e-11, No Iterations 1001
time step continuity errors : sum local = 4.93131e-13, global = 1.26344e-15, cumulative = -4.00036e-15
DILUPBiCG:  Solving for nuTilda, Initial residual = 0.00170483, Final residual = 8.31328e-21, No Iterations 28
ExecutionTime = 1.29 s  ClockTime = 1 s

Time = 12

DILUPBiCG:  Solving for Ux, Initial residual = 0.00131487, Final residual = 3.13898e-21, No Iterations 24
DILUPBiCG:  Solving for Uy, Initial residual = 0.0221405, Final residual = 7.17934e-21, No Iterations 26
DICPCG:  Solving for p, Initial residual = 0.129687, Final residual = 1.66591e-11, No Iterations 1001
time step continuity errors : sum local = 5.02762e-13, global = -2.00418e-15, cumulative = -6.00454e-15
DILUPBiCG:  Solving for nuTilda, Initial residual = 0.00149661, Final residual = 9.11884e-21, No Iterations 28
ExecutionTime = 1.41 s  ClockTime = 1 s

Time = 13

DILUPBiCG:  Solving for Ux, Initial residual = 0.00118901, Final residual = 6.07176e-21, No Iterations 24
DILUPBiCG:  Solving for Uy, Initial residual = 0.0268494, Final residual = 2.7355e-21, No Iterations 26
DICPCG:  Solving for p, Initial residual = 0.0875668, Final residual = 1.22989e-11, No Iterations 1001
time step continuity errors : sum local = 5.06595e-13, global = -3.40967e-16, cumulative = -6.34551e-15
DILUPBiCG:  Solving for nuTilda, Initial residual = 0.00133698, Final residual = 1.51178e-21, No Iterations 29
ExecutionTime = 1.51 s  ClockTime = 1 s

Time = 14

DILUPBiCG:  Solving for Ux, Initial residual = 0.0010824, Final residual = 3.09911e-21, No Iterations 25
DILUPBiCG:  Solving for Uy, Initial residual = 0.0286847, Final residual = 2.71757e-21, No Iterations 26
DICPCG:  Solving for p, Initial residual = 0.075933, Final residual = 7.72729e-12, No Iterations 1001
time step continuity errors : sum local = 4.80264e-13, global = -1.64876e-15, cumulative = -7.99427e-15
DILUPBiCG:  Solving for nuTilda, Initial residual = 0.00121085, Final residual = 1.45578e-21, No Iterations 29
ExecutionTime = 1.61 s  ClockTime = 1 s

Time = 15

DILUPBiCG:  Solving for Ux, Initial residual = 0.000987536, Final residual = 1.48576e-22, No Iterations 27
DILUPBiCG:  Solving for Uy, Initial residual = 0.0244836, Final residual = 5.30202e-21, No Iterations 26
DICPCG:  Solving for p, Initial residual = 0.0851671, Final residual = 9.69159e-12, No Iterations 1001
time step continuity errors : sum local = 4.98434e-13, global = -2.66476e-15, cumulative = -1.0659e-14
DILUPBiCG:  Solving for nuTilda, Initial residual = 0.00110969, Final residual = 1.40749e-21, No Iterations 29
ExecutionTime = 1.72 s  ClockTime = 1 s

Time = 16

DILUPBiCG:  Solving for Ux, Initial residual = 0.000905059, Final residual = 2.62563e-21, No Iterations 25
DILUPBiCG:  Solving for Uy, Initial residual = 0.0194726, Final residual = 7.41589e-21, No Iterations 26
DICPCG:  Solving for p, Initial residual = 0.102403, Final residual = 1.18352e-11, No Iterations 1001
time step continuity errors : sum local = 4.97796e-13, global = -3.61487e-15, cumulative = -1.42739e-14
DILUPBiCG:  Solving for nuTilda, Initial residual = 0.00102751, Final residual = 1.33904e-21, No Iterations 29
ExecutionTime = 1.82 s  ClockTime = 1 s

Time = 17

DILUPBiCG:  Solving for Ux, Initial residual = 0.000836201, Final residual = 4.69282e-22, No Iterations 26
DILUPBiCG:  Solving for Uy, Initial residual = 0.0176453, Final residual = 4.22877e-21, No Iterations 26
DICPCG:  Solving for p, Initial residual = 0.108671, Final residual = 8.989e-12, No Iterations 1001
time step continuity errors : sum local = 4.83056e-13, global = 3.80522e-15, cumulative = -1.04687e-14
DILUPBiCG:  Solving for nuTilda, Initial residual = 0.000959921, Final residual = 1.36871e-21, No Iterations 29
ExecutionTime = 1.95 s  ClockTime = 2 s

Time = 18

DILUPBiCG:  Solving for Ux, Initial residual = 0.000778666, Final residual = 1.99923e-21, No Iterations 25
DILUPBiCG:  Solving for Uy, Initial residual = 0.0182127, Final residual = 2.41291e-22, No Iterations 28
DICPCG:  Solving for p, Initial residual = 0.0971268, Final residual = 9.12549e-12, No Iterations 1001
time step continuity errors : sum local = 4.95982e-13, global = -5.22041e-16, cumulative = -1.09907e-14
DILUPBiCG:  Solving for nuTilda, Initial residual = 0.000904081, Final residual = 1.15336e-21, No Iterations 29
ExecutionTime = 2.04 s  ClockTime = 2 s

Time = 19

DILUPBiCG:  Solving for Ux, Initial residual = 0.000728494, Final residual = 2.15144e-21, No Iterations 25
DILUPBiCG:  Solving for Uy, Initial residual = 0.0191125, Final residual = 8.73349e-21, No Iterations 25
DICPCG:  Solving for p, Initial residual = 0.0860269, Final residual = 1.24092e-11, No Iterations 1001
time step continuity errors : sum local = 5.0264e-13, global = -2.37779e-15, cumulative = -1.33685e-14
DILUPBiCG:  Solving for nuTilda, Initial residual = 0.000857299, Final residual = 1.08131e-21, No Iterations 29
ExecutionTime = 2.13 s  ClockTime = 2 s

Time = 20

DILUPBiCG:  Solving for Ux, Initial residual = 0.000682675, Final residual = 2.5795e-21, No Iterations 25
DILUPBiCG:  Solving for Uy, Initial residual = 0.0184597, Final residual = 5.08159e-21, No Iterations 26
DICPCG:  Solving for p, Initial residual = 0.084827, Final residual = 1.24293e-11, No Iterations 1001
time step continuity errors : sum local = 5.03282e-13, global = 3.81898e-16, cumulative = -1.29866e-14
DILUPBiCG:  Solving for nuTilda, Initial residual = 0.000817884, Final residual = 1.09798e-21, No Iterations 29
ExecutionTime = 2.22 s  ClockTime = 2 s

Time = 21

DILUPBiCG:  Solving for Ux, Initial residual = 0.000640645, Final residual = 2.76164e-21, No Iterations 25
DILUPBiCG:  Solving for Uy, Initial residual = 0.0165829, Final residual = 6.40208e-22, No Iterations 27
DICPCG:  Solving for p, Initial residual = 0.0898274, Final residual = 9.05453e-12, No Iterations 1001
time step continuity errors : sum local = 4.76803e-13, global = -4.79384e-16, cumulative = -1.3466e-14
DILUPBiCG:  Solving for nuTilda, Initial residual = 0.000784514, Final residual = 1.16775e-21, No Iterations 29
ExecutionTime = 2.31 s  ClockTime = 2 s

Time = 22

DILUPBiCG:  Solving for Ux, Initial residual = 0.000603179, Final residual = 3.86845e-21, No Iterations 25
DILUPBiCG:  Solving for Uy, Initial residual = 0.0150951, Final residual = 2.07114e-21, No Iterations 26
DICPCG:  Solving for p, Initial residual = 0.0933695, Final residual = 1.03241e-11, No Iterations 1001
time step continuity errors : sum local = 4.85284e-13, global = -8.40514e-16, cumulative = -1.43065e-14
DILUPBiCG:  Solving for nuTilda, Initial residual = 0.000755799, Final residual = 1.09076e-21, No Iterations 29
ExecutionTime = 2.4 s  ClockTime = 2 s

Time = 23

DILUPBiCG:  Solving for Ux, Initial residual = 0.000570307, Final residual = 3.5061e-21, No Iterations 25
DILUPBiCG:  Solving for Uy, Initial residual = 0.0146457, Final residual = 2.44802e-21, No Iterations 26
DICPCG:  Solving for p, Initial residual = 0.0912155, Final residual = 1.38498e-11, No Iterations 1001
time step continuity errors : sum local = 5.06486e-13, global = -1.05679e-15, cumulative = -1.53633e-14
DILUPBiCG:  Solving for nuTilda, Initial residual = 0.000731664, Final residual = 8.69023e-21, No Iterations 28
ExecutionTime = 2.5 s  ClockTime = 2 s

Time = 24

DILUPBiCG:  Solving for Ux, Initial residual = 0.000541049, Final residual = 3.75899e-21, No Iterations 25
DILUPBiCG:  Solving for Uy, Initial residual = 0.0147514, Final residual = 9.14183e-21, No Iterations 25
DICPCG:  Solving for p, Initial residual = 0.0858125, Final residual = 6.72758e-12, No Iterations 1001
time step continuity errors : sum local = 4.7723e-13, global = -7.66431e-16, cumulative = -1.61297e-14
DILUPBiCG:  Solving for nuTilda, Initial residual = 0.000711449, Final residual = 4.7736e-21, No Iterations 28
ExecutionTime = 2.59 s  ClockTime = 2 s

Time = 25

DILUPBiCG:  Solving for Ux, Initial residual = 0.000514226, Final residual = 4.09535e-21, No Iterations 25
DILUPBiCG:  Solving for Uy, Initial residual = 0.0146219, Final residual = 4.91213e-21, No Iterations 25
DICPCG:  Solving for p, Initial residual = 0.0823853, Final residual = 8.78373e-12, No Iterations 1001
time step continuity errors : sum local = 4.93079e-13, global = 1.55585e-15, cumulative = -1.45739e-14
DILUPBiCG:  Solving for nuTilda, Initial residual = 0.000693994, Final residual = 3.495e-21, No Iterations 28
ExecutionTime = 2.68 s  ClockTime = 2 s

Time = 26

DILUPBiCG:  Solving for Ux, Initial residual = 0.000489229, Final residual = 4.56652e-21, No Iterations 25
DILUPBiCG:  Solving for Uy, Initial residual = 0.0139647, Final residual = 7.89636e-21, No Iterations 25
DICPCG:  Solving for p, Initial residual = 0.0823617, Final residual = 1.08871e-11, No Iterations 1001
time step continuity errors : sum local = 4.98491e-13, global = 3.73935e-15, cumulative = -1.08345e-14
DILUPBiCG:  Solving for nuTilda, Initial residual = 0.000678834, Final residual = 3.01547e-21, No Iterations 28
ExecutionTime = 2.77 s  ClockTime = 2 s

Time = 27

DILUPBiCG:  Solving for Ux, Initial residual = 0.000466139, Final residual = 4.78246e-21, No Iterations 25
DILUPBiCG:  Solving for Uy, Initial residual = 0.0131636, Final residual = 8.77221e-21, No Iterations 25
DICPCG:  Solving for p, Initial residual = 0.0832922, Final residual = 3.29147e-12, No Iterations 1001
time step continuity errors : sum local = 4.68125e-13, global = -2.18224e-16, cumulative = -1.10528e-14
DILUPBiCG:  Solving for nuTilda, Initial residual = 0.000666606, Final residual = 2.91269e-21, No Iterations 28
ExecutionTime = 2.87 s  ClockTime = 2 s

Time = 28

DILUPBiCG:  Solving for Ux, Initial residual = 0.000445132, Final residual = 4.88937e-21, No Iterations 25
DILUPBiCG:  Solving for Uy, Initial residual = 0.0126391, Final residual = 2.00295e-21, No Iterations 26
DICPCG:  Solving for p, Initial residual = 0.0827554, Final residual = 9.05585e-12, No Iterations 1001
time step continuity errors : sum local = 4.87013e-13, global = -2.27297e-16, cumulative = -1.12801e-14
DILUPBiCG:  Solving for nuTilda, Initial residual = 0.000656195, Final residual = 3.04849e-21, No Iterations 28
ExecutionTime = 2.96 s  ClockTime = 3 s

Time = 29

DILUPBiCG:  Solving for Ux, Initial residual = 0.000426032, Final residual = 6.12268e-21, No Iterations 25
DILUPBiCG:  Solving for Uy, Initial residual = 0.0124307, Final residual = 8.89834e-21, No Iterations 25
DICPCG:  Solving for p, Initial residual = 0.0804045, Final residual = 9.71015e-12, No Iterations 1001
time step continuity errors : sum local = 4.96883e-13, global = -1.39078e-15, cumulative = -1.26708e-14
DILUPBiCG:  Solving for nuTilda, Initial residual = 0.000647263, Final residual = 3.25827e-21, No Iterations 28
ExecutionTime = 3.05 s  ClockTime = 3 s

Time = 30

DILUPBiCG:  Solving for Ux, Initial residual = 0.000408419, Final residual = 7.54957e-21, No Iterations 25
DILUPBiCG:  Solving for Uy, Initial residual = 0.0122855, Final residual = 1.78148e-21, No Iterations 26
DICPCG:  Solving for p, Initial residual = 0.0777942, Final residual = 1.12125e-11, No Iterations 1001
time step continuity errors : sum local = 5.03301e-13, global = 8.01637e-16, cumulative = -1.18692e-14
DILUPBiCG:  Solving for nuTilda, Initial residual = 0.000640222, Final residual = 3.47966e-21, No Iterations 28
ExecutionTime = 3.14 s  ClockTime = 3 s

Time = 31

DILUPBiCG:  Solving for Ux, Initial residual = 0.000391935, Final residual = 8.58655e-21, No Iterations 25
DILUPBiCG:  Solving for Uy, Initial residual = 0.0119939, Final residual = 1.95149e-21, No Iterations 26
DICPCG:  Solving for p, Initial residual = 0.0761889, Final residual = 5.23478e-12, No Iterations 1001
time step continuity errors : sum local = 4.75788e-13, global = 2.71373e-16, cumulative = -1.15978e-14
DILUPBiCG:  Solving for nuTilda, Initial residual = 0.000634545, Final residual = 9.35256e-21, No Iterations 27
ExecutionTime = 3.22 s  ClockTime = 3 s

Time = 32

DILUPBiCG:  Solving for Ux, Initial residual = 0.000376472, Final residual = 9.52638e-21, No Iterations 25
DILUPBiCG:  Solving for Uy, Initial residual = 0.0115815, Final residual = 9.44839e-21, No Iterations 25
DICPCG:  Solving for p, Initial residual = 0.0753797, Final residual = 9.01388e-12, No Iterations 1001
time step continuity errors : sum local = 5.00558e-13, global = -5.71879e-17, cumulative = -1.1655e-14
DILUPBiCG:  Solving for nuTilda, Initial residual = 0.000629888, Final residual = 8.16407e-21, No Iterations 27
ExecutionTime = 3.32 s  ClockTime = 3 s

Time = 33

DILUPBiCG:  Solving for Ux, Initial residual = 0.000362073, Final residual = 8.15702e-22, No Iterations 26
DILUPBiCG:  Solving for Uy, Initial residual = 0.0112025, Final residual = 6.82218e-21, No Iterations 26
DICPCG:  Solving for p, Initial residual = 0.0744166, Final residual = 5.49879e-12, No Iterations 1001
time step continuity errors : sum local = 4.71566e-13, global = -1.82763e-15, cumulative = -1.34826e-14
DILUPBiCG:  Solving for nuTilda, Initial residual = 0.000626674, Final residual = 7.50844e-21, No Iterations 27
ExecutionTime = 3.41 s  ClockTime = 3 s

Time = 34

DILUPBiCG:  Solving for Ux, Initial residual = 0.000348727, Final residual = 6.8074e-22, No Iterations 26
DILUPBiCG:  Solving for Uy, Initial residual = 0.0109411, Final residual = 9.4753e-21, No Iterations 25
DICPCG:  Solving for p, Initial residual = 0.0728989, Final residual = 9.09055e-12, No Iterations 1001
time step continuity errors : sum local = 4.92197e-13, global = -9.43984e-16, cumulative = -1.44266e-14
DILUPBiCG:  Solving for nuTilda, Initial residual = 0.000624388, Final residual = 6.90096e-21, No Iterations 27
ExecutionTime = 3.5 s  ClockTime = 3 s

Time = 35

DILUPBiCG:  Solving for Ux, Initial residual = 0.000336305, Final residual = 6.26752e-22, No Iterations 26
DILUPBiCG:  Solving for Uy, Initial residual = 0.0107527, Final residual = 6.93465e-21, No Iterations 25
DICPCG:  Solving for p, Initial residual = 0.070954, Final residual = 3.80001e-12, No Iterations 1001
time step continuity errors : sum local = 4.7005e-13, global = -9.96364e-16, cumulative = -1.5423e-14
DILUPBiCG:  Solving for nuTilda, Initial residual = 0.000622885, Final residual = 6.22383e-21, No Iterations 27
ExecutionTime = 3.59 s  ClockTime = 3 s

Time = 36

DILUPBiCG:  Solving for Ux, Initial residual = 0.000324638, Final residual = 6.48887e-22, No Iterations 26
DILUPBiCG:  Solving for Uy, Initial residual = 0.0105491, Final residual = 1.62475e-21, No Iterations 26
DICPCG:  Solving for p, Initial residual = 0.0691951, Final residual = 7.48511e-12, No Iterations 1001
time step continuity errors : sum local = 4.86564e-13, global = 3.37508e-16, cumulative = -1.50855e-14
DILUPBiCG:  Solving for nuTilda, Initial residual = 0.000622578, Final residual = 5.97514e-21, No Iterations 27
ExecutionTime = 3.68 s  ClockTime = 3 s

Time = 37

DILUPBiCG:  Solving for Ux, Initial residual = 0.000313622, Final residual = 6.9731e-22, No Iterations 26
DILUPBiCG:  Solving for Uy, Initial residual = 0.0102991, Final residual = 1.41162e-21, No Iterations 26
DICPCG:  Solving for p, Initial residual = 0.0677958, Final residual = 9.05376e-12, No Iterations 1001
time step continuity errors : sum local = 4.96083e-13, global = -8.59482e-16, cumulative = -1.5945e-14
DILUPBiCG:  Solving for nuTilda, Initial residual = 0.00062287, Final residual = 6.07932e-21, No Iterations 27
ExecutionTime = 3.78 s  ClockTime = 3 s

Time = 38

DILUPBiCG:  Solving for Ux, Initial residual = 0.000303229, Final residual = 7.1219e-22, No Iterations 26
DILUPBiCG:  Solving for Uy, Initial residual = 0.0100392, Final residual = 4.86428e-21, No Iterations 25
DICPCG:  Solving for p, Initial residual = 0.0665709, Final residual = 5.75893e-12, No Iterations 1001
time step continuity errors : sum local = 4.78032e-13, global = -2.11311e-16, cumulative = -1.61563e-14
DILUPBiCG:  Solving for nuTilda, Initial residual = 0.000624013, Final residual = 6.59242e-21, No Iterations 27
ExecutionTime = 3.87 s  ClockTime = 3 s

Time = 39

DILUPBiCG:  Solving for Ux, Initial residual = 0.000293458, Final residual = 7.22274e-22, No Iterations 26
DILUPBiCG:  Solving for Uy, Initial residual = 0.00981288, Final residual = 6.71695e-21, No Iterations 25
DICPCG:  Solving for p, Initial residual = 0.0652079, Final residual = 9.10381e-12, No Iterations 1001
time step continuity errors : sum local = 4.96434e-13, global = 1.87862e-15, cumulative = -1.42777e-14
DILUPBiCG:  Solving for nuTilda, Initial residual = 0.000625918, Final residual = 8.12036e-21, No Iterations 27
ExecutionTime = 3.97 s  ClockTime = 4 s

Time = 40

DILUPBiCG:  Solving for Ux, Initial residual = 0.000284273, Final residual = 7.57278e-22, No Iterations 26
DILUPBiCG:  Solving for Uy, Initial residual = 0.0096243, Final residual = 5.8177e-21, No Iterations 25
DICPCG:  Solving for p, Initial residual = 0.0636669, Final residual = 3.90419e-12, No Iterations 1001
time step continuity errors : sum local = 4.78875e-13, global = -1.42245e-16, cumulative = -1.44199e-14
DILUPBiCG:  Solving for nuTilda, Initial residual = 0.000628346, Final residual = 5.67123e-21, No Iterations 28
ExecutionTime = 4.06 s  ClockTime = 4 s

Time = 41

DILUPBiCG:  Solving for Ux, Initial residual = 0.000275602, Final residual = 8.1588e-22, No Iterations 26
DILUPBiCG:  Solving for Uy, Initial residual = 0.00944778, Final residual = 2.98821e-21, No Iterations 26
DICPCG:  Solving for p, Initial residual = 0.0621561, Final residual = 5.68243e-12, No Iterations 1001
time step continuity errors : sum local = 4.89413e-13, global = 2.19437e-16, cumulative = -1.42005e-14
DILUPBiCG:  Solving for nuTilda, Initial residual = 0.000631645, Final residual = 4.34809e-21, No Iterations 28
ExecutionTime = 4.15 s  ClockTime = 4 s

Time = 42

DILUPBiCG:  Solving for Ux, Initial residual = 0.00026738, Final residual = 9.53963e-22, No Iterations 26
DILUPBiCG:  Solving for Uy, Initial residual = 0.0092621, Final residual = 9.42586e-21, No Iterations 26
DICPCG:  Solving for p, Initial residual = 0.0607977, Final residual = 7.23453e-12, No Iterations 1001
time step continuity errors : sum local = 4.89169e-13, global = 2.56831e-16, cumulative = -1.39436e-14
DILUPBiCG:  Solving for nuTilda, Initial residual = 0.000635212, Final residual = 3.81184e-21, No Iterations 28
ExecutionTime = 4.25 s  ClockTime = 4 s

Time = 43

DILUPBiCG:  Solving for Ux, Initial residual = 0.000259571, Final residual = 1.56136e-21, No Iterations 26
DILUPBiCG:  Solving for Uy, Initial residual = 0.00907013, Final residual = 6.07961e-21, No Iterations 25
DICPCG:  Solving for p, Initial residual = 0.0595128, Final residual = 5.58273e-12, No Iterations 1001
time step continuity errors : sum local = 4.9809e-13, global = -1.15109e-15, cumulative = -1.50947e-14
DILUPBiCG:  Solving for nuTilda, Initial residual = 0.00063948, Final residual = 3.40181e-21, No Iterations 28
ExecutionTime = 4.33 s  ClockTime = 4 s

Time = 44

DILUPBiCG:  Solving for Ux, Initial residual = 0.000252158, Final residual = 5.19838e-21, No Iterations 26
DILUPBiCG:  Solving for Uy, Initial residual = 0.00888489, Final residual = 1.46967e-21, No Iterations 26
DICPCG:  Solving for p, Initial residual = 0.0582766, Final residual = 5.73243e-12, No Iterations 1001
time step continuity errors : sum local = 4.80416e-13, global = 6.64928e-15, cumulative = -8.44545e-15
DILUPBiCG:  Solving for nuTilda, Initial residual = 0.00064405, Final residual = 9.14948e-21, No Iterations 27
ExecutionTime = 4.42 s  ClockTime = 4 s

Time = 45

DILUPBiCG:  Solving for Ux, Initial residual = 0.00024513, Final residual = 2.15829e-21, No Iterations 26
DILUPBiCG:  Solving for Uy, Initial residual = 0.00871392, Final residual = 1.5317e-21, No Iterations 26
DICPCG:  Solving for p, Initial residual = 0.056998, Final residual = 4.68956e-12, No Iterations 1001
time step continuity errors : sum local = 4.75834e-13, global = -2.43395e-16, cumulative = -8.68884e-15
DILUPBiCG:  Solving for nuTilda, Initial residual = 0.000649277, Final residual = 7.35346e-21, No Iterations 27
ExecutionTime = 4.5 s  ClockTime = 4 s

Time = 46

DILUPBiCG:  Solving for Ux, Initial residual = 0.000238456, Final residual = 2.73143e-22, No Iterations 28
DILUPBiCG:  Solving for Uy, Initial residual = 0.00855257, Final residual = 1.82405e-21, No Iterations 26
DICPCG:  Solving for p, Initial residual = 0.055648, Final residual = 7.11725e-12, No Iterations 1001
time step continuity errors : sum local = 4.91453e-13, global = -1.83372e-15, cumulative = -1.05226e-14
DILUPBiCG:  Solving for nuTilda, Initial residual = 0.000654919, Final residual = 6.53129e-21, No Iterations 27
ExecutionTime = 4.59 s  ClockTime = 4 s

Time = 47

DILUPBiCG:  Solving for Ux, Initial residual = 0.000232104, Final residual = 9.06043e-21, No Iterations 26
DILUPBiCG:  Solving for Uy, Initial residual = 0.00839274, Final residual = 9.17574e-21, No Iterations 25
DICPCG:  Solving for p, Initial residual = 0.0544078, Final residual = 3.84187e-12, No Iterations 1001
time step continuity errors : sum local = 4.78009e-13, global = 1.31054e-15, cumulative = -9.21202e-15
DILUPBiCG:  Solving for nuTilda, Initial residual = 0.00066115, Final residual = 6.85012e-21, No Iterations 27
ExecutionTime = 4.67 s  ClockTime = 4 s

Time = 48

DILUPBiCG:  Solving for Ux, Initial residual = 0.000226043, Final residual = 6.55193e-21, No Iterations 26
DILUPBiCG:  Solving for Uy, Initial residual = 0.00823159, Final residual = 2.89159e-21, No Iterations 27
DICPCG:  Solving for p, Initial residual = 0.0532126, Final residual = 2.03729e-12, No Iterations 1001
time step continuity errors : sum local = 4.65021e-13, global = 1.41653e-15, cumulative = -7.79549e-15
DILUPBiCG:  Solving for nuTilda, Initial residual = 0.000667841, Final residual = 7.46007e-21, No Iterations 27
ExecutionTime = 4.75 s  ClockTime = 4 s

Time = 49

DILUPBiCG:  Solving for Ux, Initial residual = 0.000220258, Final residual = 5.81868e-21, No Iterations 26
DILUPBiCG:  Solving for Uy, Initial residual = 0.00807211, Final residual = 8.78667e-21, No Iterations 25
DICPCG:  Solving for p, Initial residual = 0.0520149, Final residual = 5.28844e-12, No Iterations 1001
time step continuity errors : sum local = 4.80153e-13, global = -4.85664e-16, cumulative = -8.28115e-15
DILUPBiCG:  Solving for nuTilda, Initial residual = 0.000675077, Final residual = 7.79572e-21, No Iterations 27
ExecutionTime = 4.84 s  ClockTime = 4 s

Time = 50

DILUPBiCG:  Solving for Ux, Initial residual = 0.000214735, Final residual = 5.39623e-21, No Iterations 26
DILUPBiCG:  Solving for Uy, Initial residual = 0.00791693, Final residual = 8.01645e-21, No Iterations 26
DICPCG:  Solving for p, Initial residual = 0.0508689, Final residual = 5.22291e-12, No Iterations 1001
time step continuity errors : sum local = 4.90526e-13, global = -2.88783e-15, cumulative = -1.1169e-14
DILUPBiCG:  Solving for nuTilda, Initial residual = 0.000682779, Final residual = 8.00912e-21, No Iterations 27
ExecutionTime = 4.94 s  ClockTime = 5 s

Time = 51

DILUPBiCG:  Solving for Ux, Initial residual = 0.000209463, Final residual = 4.96018e-21, No Iterations 26
DILUPBiCG:  Solving for Uy, Initial residual = 0.0077662, Final residual = 2.83023e-21, No Iterations 26
DICPCG:  Solving for p, Initial residual = 0.0497054, Final residual = 5.62923e-12, No Iterations 1001
time step continuity errors : sum local = 4.91918e-13, global = -3.21622e-15, cumulative = -1.43852e-14
DILUPBiCG:  Solving for nuTilda, Initial residual = 0.000691065, Final residual = 8.31472e-21, No Iterations 27
ExecutionTime = 5.02 s  ClockTime = 5 s

Time = 52

DILUPBiCG:  Solving for Ux, Initial residual = 0.000204423, Final residual = 4.484e-21, No Iterations 26
DILUPBiCG:  Solving for Uy, Initial residual = 0.00761831, Final residual = 8.77445e-21, No Iterations 26
DICPCG:  Solving for p, Initial residual = 0.0485845, Final residual = 6.02723e-12, No Iterations 1001
time step continuity errors : sum local = 4.98444e-13, global = -2.40668e-15, cumulative = -1.67919e-14
DILUPBiCG:  Solving for nuTilda, Initial residual = 0.000699834, Final residual = 8.85932e-21, No Iterations 27
ExecutionTime = 5.11 s  ClockTime = 5 s

Time = 53

DILUPBiCG:  Solving for Ux, Initial residual = 0.000199599, Final residual = 4.10973e-21, No Iterations 26
DILUPBiCG:  Solving for Uy, Initial residual = 0.00747268, Final residual = 9.63907e-21, No Iterations 26
DICPCG:  Solving for p, Initial residual = 0.0474917, Final residual = 2.50384e-12, No Iterations 1001
time step continuity errors : sum local = 4.64905e-13, global = 3.70852e-15, cumulative = -1.30834e-14
DILUPBiCG:  Solving for nuTilda, Initial residual = 0.000709228, Final residual = 1.99346e-21, No Iterations 28
ExecutionTime = 5.2 s  ClockTime = 5 s

Time = 54

DILUPBiCG:  Solving for Ux, Initial residual = 0.000194976, Final residual = 7.90557e-21, No Iterations 25
DILUPBiCG:  Solving for Uy, Initial residual = 0.00732949, Final residual = 1.23524e-21, No Iterations 27
DICPCG:  Solving for p, Initial residual = 0.0464351, Final residual = 2.26728e-12, No Iterations 1001
time step continuity errors : sum local = 4.75057e-13, global = 1.18446e-15, cumulative = -1.18989e-14
DILUPBiCG:  Solving for nuTilda, Initial residual = 0.000719108, Final residual = 2.10045e-21, No Iterations 28
ExecutionTime = 5.29 s  ClockTime = 5 s

Time = 55

DILUPBiCG:  Solving for Ux, Initial residual = 0.000190543, Final residual = 3.15166e-21, No Iterations 26
DILUPBiCG:  Solving for Uy, Initial residual = 0.00718846, Final residual = 9.97063e-21, No Iterations 25
DICPCG:  Solving for p, Initial residual = 0.0453985, Final residual = 1.7537e-12, No Iterations 1001
time step continuity errors : sum local = 4.6862e-13, global = -6.13087e-16, cumulative = -1.2512e-14
DILUPBiCG:  Solving for nuTilda, Initial residual = 0.000729677, Final residual = 2.69201e-21, No Iterations 28
ExecutionTime = 5.39 s  ClockTime = 5 s

Time = 56

DILUPBiCG:  Solving for Ux, Initial residual = 0.00018629, Final residual = 2.05716e-21, No Iterations 26
DILUPBiCG:  Solving for Uy, Initial residual = 0.00704948, Final residual = 2.60097e-21, No Iterations 26
DICPCG:  Solving for p, Initial residual = 0.0443558, Final residual = 2.79318e-12, No Iterations 1001
time step continuity errors : sum local = 4.88089e-13, global = -1.36215e-15, cumulative = -1.38741e-14
DILUPBiCG:  Solving for nuTilda, Initial residual = 0.000740719, Final residual = 4.01917e-21, No Iterations 27
ExecutionTime = 5.49 s  ClockTime = 5 s

Time = 57

DILUPBiCG:  Solving for Ux, Initial residual = 0.000182209, Final residual = 2.23849e-21, No Iterations 26
DILUPBiCG:  Solving for Uy, Initial residual = 0.00691303, Final residual = 8.22979e-21, No Iterations 25
DICPCG:  Solving for p, Initial residual = 0.0433742, Final residual = 3.18425e-12, No Iterations 1001
time step continuity errors : sum local = 4.75119e-13, global = -4.15695e-16, cumulative = -1.42898e-14
DILUPBiCG:  Solving for nuTilda, Initial residual = 0.000752513, Final residual = 2.26532e-21, No Iterations 27
ExecutionTime = 5.59 s  ClockTime = 5 s

Time = 58

DILUPBiCG:  Solving for Ux, Initial residual = 0.00017829, Final residual = 2.50471e-21, No Iterations 26
DILUPBiCG:  Solving for Uy, Initial residual = 0.00677977, Final residual = 7.91281e-21, No Iterations 25
DICPCG:  Solving for p, Initial residual = 0.042383, Final residual = 2.89692e-12, No Iterations 1001
time step continuity errors : sum local = 4.85102e-13, global = 1.49601e-15, cumulative = -1.27938e-14
DILUPBiCG:  Solving for nuTilda, Initial residual = 0.000764834, Final residual = 1.47785e-21, No Iterations 28
ExecutionTime = 5.68 s  ClockTime = 5 s

Time = 59

DILUPBiCG:  Solving for Ux, Initial residual = 0.000174524, Final residual = 2.76702e-21, No Iterations 26
DILUPBiCG:  Solving for Uy, Initial residual = 0.00664951, Final residual = 1.1132e-21, No Iterations 26
DICPCG:  Solving for p, Initial residual = 0.0414504, Final residual = 3.25801e-12, No Iterations 1001
time step continuity errors : sum local = 4.76769e-13, global = 3.11774e-16, cumulative = -1.2482e-14
DILUPBiCG:  Solving for nuTilda, Initial residual = 0.000777883, Final residual = 1.32729e-21, No Iterations 28
ExecutionTime = 5.78 s  ClockTime = 5 s

Time = 60

DILUPBiCG:  Solving for Ux, Initial residual = 0.0001709, Final residual = 3.03674e-21, No Iterations 26
DILUPBiCG:  Solving for Uy, Initial residual = 0.00652094, Final residual = 1.31043e-21, No Iterations 26
DICPCG:  Solving for p, Initial residual = 0.0405025, Final residual = 4.73223e-12, No Iterations 1001
time step continuity errors : sum local = 4.94493e-13, global = 5.01257e-15, cumulative = -7.46947e-15
DILUPBiCG:  Solving for nuTilda, Initial residual = 0.00079168, Final residual = 2.26787e-21, No Iterations 28
ExecutionTime = 5.89 s  ClockTime = 5 s

Time = 61

DILUPBiCG:  Solving for Ux, Initial residual = 0.000167413, Final residual = 3.33993e-21, No Iterations 26
DILUPBiCG:  Solving for Uy, Initial residual = 0.00639328, Final residual = 4.21842e-21, No Iterations 26
DICPCG:  Solving for p, Initial residual = 0.0396264, Final residual = 2.00167e-12, No Iterations 1001
time step continuity errors : sum local = 4.76686e-13, global = -1.77042e-15, cumulative = -9.23989e-15
DILUPBiCG:  Solving for nuTilda, Initial residual = 0.000806093, Final residual = 5.76893e-21, No Iterations 27
ExecutionTime = 5.99 s  ClockTime = 6 s

Time = 62

DILUPBiCG:  Solving for Ux, Initial residual = 0.000164055, Final residual = 3.7003e-21, No Iterations 26
DILUPBiCG:  Solving for Uy, Initial residual = 0.0062668, Final residual = 3.36469e-21, No Iterations 26
DICPCG:  Solving for p, Initial residual = 0.0387641, Final residual = 2.1992e-12, No Iterations 1001
time step continuity errors : sum local = 4.81869e-13, global = -1.51274e-15, cumulative = -1.07526e-14
DILUPBiCG:  Solving for nuTilda, Initial residual = 0.00082144, Final residual = 5.35167e-21, No Iterations 27
ExecutionTime = 6.08 s  ClockTime = 6 s

Time = 63

DILUPBiCG:  Solving for Ux, Initial residual = 0.000160819, Final residual = 4.14935e-21, No Iterations 26
DILUPBiCG:  Solving for Uy, Initial residual = 0.00614289, Final residual = 1.36549e-21, No Iterations 26
DICPCG:  Solving for p, Initial residual = 0.0379232, Final residual = 2.84207e-12, No Iterations 1001
time step continuity errors : sum local = 4.72236e-13, global = 2.09272e-17, cumulative = -1.07317e-14
DILUPBiCG:  Solving for nuTilda, Initial residual = 0.000837479, Final residual = 2.49766e-21, No Iterations 28
ExecutionTime = 6.17 s  ClockTime = 6 s

Time = 64

DILUPBiCG:  Solving for Ux, Initial residual = 0.000157701, Final residual = 4.65519e-21, No Iterations 26
DILUPBiCG:  Solving for Uy, Initial residual = 0.00602178, Final residual = 4.88428e-21, No Iterations 26
DICPCG:  Solving for p, Initial residual = 0.0370905, Final residual = 2.20514e-12, No Iterations 1001
time step continuity errors : sum local = 4.74159e-13, global = -2.85604e-15, cumulative = -1.35877e-14
DILUPBiCG:  Solving for nuTilda, Initial residual = 0.000854375, Final residual = 8.03579e-21, No Iterations 27
ExecutionTime = 6.26 s  ClockTime = 6 s

Time = 65

DILUPBiCG:  Solving for Ux, Initial residual = 0.000154694, Final residual = 5.13004e-21, No Iterations 26
DILUPBiCG:  Solving for Uy, Initial residual = 0.00590219, Final residual = 9.10405e-21, No Iterations 25
DICPCG:  Solving for p, Initial residual = 0.0363125, Final residual = 2.69977e-12, No Iterations 1001
time step continuity errors : sum local = 4.8223e-13, global = 3.71842e-16, cumulative = -1.32159e-14
DILUPBiCG:  Solving for nuTilda, Initial residual = 0.00087232, Final residual = 6.52695e-21, No Iterations 27
ExecutionTime = 6.35 s  ClockTime = 6 s

Time = 66

DILUPBiCG:  Solving for Ux, Initial residual = 0.000151792, Final residual = 5.40533e-21, No Iterations 26
DILUPBiCG:  Solving for Uy, Initial residual = 0.00578285, Final residual = 6.54511e-21, No Iterations 25
DICPCG:  Solving for p, Initial residual = 0.0355495, Final residual = 3.05249e-12, No Iterations 1001
time step continuity errors : sum local = 4.77374e-13, global = 5.21958e-16, cumulative = -1.26939e-14
DILUPBiCG:  Solving for nuTilda, Initial residual = 0.000891064, Final residual = 5.28151e-21, No Iterations 27
ExecutionTime = 6.45 s  ClockTime = 6 s

Time = 67

DILUPBiCG:  Solving for Ux, Initial residual = 0.000148989, Final residual = 5.34325e-21, No Iterations 26
DILUPBiCG:  Solving for Uy, Initial residual = 0.005664, Final residual = 2.83191e-21, No Iterations 26
DICPCG:  Solving for p, Initial residual = 0.034795, Final residual = 2.43216e-12, No Iterations 1001
time step continuity errors : sum local = 4.88675e-13, global = 1.59755e-15, cumulative = -1.10964e-14
DILUPBiCG:  Solving for nuTilda, Initial residual = 0.000910893, Final residual = 4.50151e-21, No Iterations 27
ExecutionTime = 6.54 s  ClockTime = 6 s

Time = 68

DILUPBiCG:  Solving for Ux, Initial residual = 0.000146283, Final residual = 5.00058e-21, No Iterations 26
DILUPBiCG:  Solving for Uy, Initial residual = 0.00554719, Final residual = 7.38708e-21, No Iterations 25
DICPCG:  Solving for p, Initial residual = 0.0340534, Final residual = 1.68373e-12, No Iterations 1001
time step continuity errors : sum local = 4.77414e-13, global = 1.81327e-15, cumulative = -9.28313e-15
DILUPBiCG:  Solving for nuTilda, Initial residual = 0.000931903, Final residual = 2.85094e-21, No Iterations 28
ExecutionTime = 6.62 s  ClockTime = 6 s

Time = 69

DILUPBiCG:  Solving for Ux, Initial residual = 0.000143667, Final residual = 4.68534e-21, No Iterations 26
DILUPBiCG:  Solving for Uy, Initial residual = 0.00543303, Final residual = 8.0916e-21, No Iterations 25
DICPCG:  Solving for p, Initial residual = 0.0333236, Final residual = 9.03528e-13, No Iterations 1001
time step continuity errors : sum local = 4.7192e-13, global = -1.3856e-15, cumulative = -1.06687e-14
DILUPBiCG:  Solving for nuTilda, Initial residual = 0.000953905, Final residual = 1.96077e-21, No Iterations 28
ExecutionTime = 6.7 s  ClockTime = 6 s

Time = 70

DILUPBiCG:  Solving for Ux, Initial residual = 0.000141139, Final residual = 4.70249e-21, No Iterations 26
DILUPBiCG:  Solving for Uy, Initial residual = 0.00532024, Final residual = 7.4981e-21, No Iterations 25
DICPCG:  Solving for p, Initial residual = 0.0326212, Final residual = 2.03676e-12, No Iterations 1001
time step continuity errors : sum local = 4.79876e-13, global = -3.73528e-15, cumulative = -1.4404e-14
DILUPBiCG:  Solving for nuTilda, Initial residual = 0.000977232, Final residual = 9.57617e-21, No Iterations 27
ExecutionTime = 6.79 s  ClockTime = 6 s

Time = 71

DILUPBiCG:  Solving for Ux, Initial residual = 0.000138694, Final residual = 5.26068e-21, No Iterations 26
DILUPBiCG:  Solving for Uy, Initial residual = 0.00520768, Final residual = 6.5269e-21, No Iterations 26
DICPCG:  Solving for p, Initial residual = 0.0319247, Final residual = 2.34799e-12, No Iterations 1001
time step continuity errors : sum local = 4.76417e-13, global = -5.60116e-17, cumulative = -1.446e-14
DILUPBiCG:  Solving for nuTilda, Initial residual = 0.00100195, Final residual = 4.32289e-21, No Iterations 28
ExecutionTime = 6.87 s  ClockTime = 6 s

Time = 72

DILUPBiCG:  Solving for Ux, Initial residual = 0.000136328, Final residual = 6.3875e-21, No Iterations 26
DILUPBiCG:  Solving for Uy, Initial residual = 0.00509551, Final residual = 5.46136e-21, No Iterations 25
DICPCG:  Solving for p, Initial residual = 0.031243, Final residual = 1.67515e-12, No Iterations 1001
time step continuity errors : sum local = 4.76979e-13, global = -1.00113e-15, cumulative = -1.54612e-14
DILUPBiCG:  Solving for nuTilda, Initial residual = 0.00102791, Final residual = 4.29878e-22, No Iterations 29
ExecutionTime = 6.96 s  ClockTime = 7 s

Time = 73

DILUPBiCG:  Solving for Ux, Initial residual = 0.000134038, Final residual = 7.76614e-21, No Iterations 26
DILUPBiCG:  Solving for Uy, Initial residual = 0.00498559, Final residual = 4.42797e-21, No Iterations 25
DICPCG:  Solving for p, Initial residual = 0.0305722, Final residual = 1.06297e-12, No Iterations 1001
time step continuity errors : sum local = 4.66626e-13, global = -6.23245e-16, cumulative = -1.60844e-14
DILUPBiCG:  Solving for nuTilda, Initial residual = 0.00105545, Final residual = 3.3007e-21, No Iterations 28
ExecutionTime = 7.05 s  ClockTime = 7 s

Time = 74

DILUPBiCG:  Solving for Ux, Initial residual = 0.000131821, Final residual = 8.55967e-21, No Iterations 26
DILUPBiCG:  Solving for Uy, Initial residual = 0.00487869, Final residual = 5.80472e-21, No Iterations 25
DICPCG:  Solving for p, Initial residual = 0.0299315, Final residual = 2.31629e-12, No Iterations 1001
time step continuity errors : sum local = 4.72745e-13, global = -1.66137e-15, cumulative = -1.77458e-14
DILUPBiCG:  Solving for nuTilda, Initial residual = 0.00108473, Final residual = 1.87429e-21, No Iterations 28
ExecutionTime = 7.14 s  ClockTime = 7 s

Time = 75

DILUPBiCG:  Solving for Ux, Initial residual = 0.000129673, Final residual = 8.13907e-21, No Iterations 26
DILUPBiCG:  Solving for Uy, Initial residual = 0.00477402, Final residual = 2.01611e-21, No Iterations 27
DICPCG:  Solving for p, Initial residual = 0.0292893, Final residual = 1.69088e-12, No Iterations 1001
time step continuity errors : sum local = 4.75643e-13, global = -2.81115e-15, cumulative = -2.05569e-14
DILUPBiCG:  Solving for nuTilda, Initial residual = 0.00111562, Final residual = 1.51651e-21, No Iterations 28
ExecutionTime = 7.23 s  ClockTime = 7 s

Time = 76

DILUPBiCG:  Solving for Ux, Initial residual = 0.000127592, Final residual = 6.9708e-21, No Iterations 26
DILUPBiCG:  Solving for Uy, Initial residual = 0.00467027, Final residual = 5.22339e-21, No Iterations 25
DICPCG:  Solving for p, Initial residual = 0.028664, Final residual = 9.71762e-13, No Iterations 1001
time step continuity errors : sum local = 4.66494e-13, global = -2.52365e-15, cumulative = -2.30806e-14
DILUPBiCG:  Solving for nuTilda, Initial residual = 0.00114838, Final residual = 1.46277e-21, No Iterations 28
ExecutionTime = 7.32 s  ClockTime = 7 s

Time = 77

DILUPBiCG:  Solving for Ux, Initial residual = 0.000125576, Final residual = 5.9766e-21, No Iterations 26
DILUPBiCG:  Solving for Uy, Initial residual = 0.00456773, Final residual = 8.49022e-21, No Iterations 25
DICPCG:  Solving for p, Initial residual = 0.0280384, Final residual = 1.27992e-12, No Iterations 1001
time step continuity errors : sum local = 4.69268e-13, global = 2.62173e-17, cumulative = -2.30543e-14
DILUPBiCG:  Solving for nuTilda, Initial residual = 0.00118334, Final residual = 1.54599e-21, No Iterations 28
ExecutionTime = 7.42 s  ClockTime = 7 s

Time = 78

DILUPBiCG:  Solving for Ux, Initial residual = 0.000123621, Final residual = 5.68993e-21, No Iterations 26
DILUPBiCG:  Solving for Uy, Initial residual = 0.00446846, Final residual = 7.35342e-21, No Iterations 27
DICPCG:  Solving for p, Initial residual = 0.0274462, Final residual = 1.60612e-12, No Iterations 1001
time step continuity errors : sum local = 4.75806e-13, global = -2.27621e-15, cumulative = -2.53306e-14
DILUPBiCG:  Solving for nuTilda, Initial residual = 0.00122043, Final residual = 1.7679e-21, No Iterations 28
ExecutionTime = 7.5 s  ClockTime = 7 s

Time = 79

DILUPBiCG:  Solving for Ux, Initial residual = 0.000121725, Final residual = 6.32117e-21, No Iterations 26
DILUPBiCG:  Solving for Uy, Initial residual = 0.00437353, Final residual = 7.16216e-21, No Iterations 26
DICPCG:  Solving for p, Initial residual = 0.0268506, Final residual = 1.50625e-12, No Iterations 1001
time step continuity errors : sum local = 4.68517e-13, global = 6.25311e-16, cumulative = -2.47052e-14
DILUPBiCG:  Solving for nuTilda, Initial residual = 0.00125984, Final residual = 2.49526e-21, No Iterations 28
ExecutionTime = 7.59 s  ClockTime = 7 s

Time = 80

DILUPBiCG:  Solving for Ux, Initial residual = 0.000119887, Final residual = 7.86359e-21, No Iterations 26
DILUPBiCG:  Solving for Uy, Initial residual = 0.00428218, Final residual = 4.08039e-21, No Iterations 26
DICPCG:  Solving for p, Initial residual = 0.0262872, Final residual = 1.47429e-12, No Iterations 1001
time step continuity errors : sum local = 4.92176e-13, global = -2.35353e-15, cumulative = -2.70588e-14
DILUPBiCG:  Solving for nuTilda, Initial residual = 0.00130197, Final residual = 6.8561e-21, No Iterations 28
ExecutionTime = 7.67 s  ClockTime = 7 s

Time = 81

DILUPBiCG:  Solving for Ux, Initial residual = 0.000118102, Final residual = 9.91709e-21, No Iterations 26
DILUPBiCG:  Solving for Uy, Initial residual = 0.00419318, Final residual = 2.01277e-21, No Iterations 26
DICPCG:  Solving for p, Initial residual = 0.0257195, Final residual = 8.99023e-13, No Iterations 1001
time step continuity errors : sum local = 4.77509e-13, global = 2.98416e-17, cumulative = -2.70289e-14
DILUPBiCG:  Solving for nuTilda, Initial residual = 0.00134699, Final residual = 6.60683e-21, No Iterations 29
ExecutionTime = 7.76 s  ClockTime = 7 s

Time = 82

DILUPBiCG:  Solving for Ux, Initial residual = 0.00011637, Final residual = 1.69206e-21, No Iterations 27
DILUPBiCG:  Solving for Uy, Initial residual = 0.00410699, Final residual = 4.64168e-21, No Iterations 25
DICPCG:  Solving for p, Initial residual = 0.0251752, Final residual = 6.02397e-13, No Iterations 1001
time step continuity errors : sum local = 4.87357e-13, global = 1.34255e-16, cumulative = -2.68947e-14
DILUPBiCG:  Solving for nuTilda, Initial residual = 0.00139505, Final residual = 6.85534e-21, No Iterations 28
ExecutionTime = 7.85 s  ClockTime = 7 s

Time = 83

DILUPBiCG:  Solving for Ux, Initial residual = 0.000114688, Final residual = 1.99985e-21, No Iterations 27
DILUPBiCG:  Solving for Uy, Initial residual = 0.00402559, Final residual = 4.52593e-21, No Iterations 26
DICPCG:  Solving for p, Initial residual = 0.0246114, Final residual = 9.31091e-13, No Iterations 1001
time step continuity errors : sum local = 4.73925e-13, global = -1.54419e-15, cumulative = -2.84389e-14
DILUPBiCG:  Solving for nuTilda, Initial residual = 0.00144647, Final residual = 5.85796e-21, No Iterations 28
ExecutionTime = 7.94 s  ClockTime = 8 s

Time = 84

DILUPBiCG:  Solving for Ux, Initial residual = 0.000113055, Final residual = 3.35064e-21, No Iterations 27
DILUPBiCG:  Solving for Uy, Initial residual = 0.0039496, Final residual = 1.86592e-21, No Iterations 26
DICPCG:  Solving for p, Initial residual = 0.0241029, Final residual = 1.01312e-12, No Iterations 1001
time step continuity errors : sum local = 4.84817e-13, global = 1.13016e-15, cumulative = -2.73087e-14
DILUPBiCG:  Solving for nuTilda, Initial residual = 0.00150181, Final residual = 4.66974e-21, No Iterations 28
ExecutionTime = 8.03 s  ClockTime = 8 s

Time = 85

DILUPBiCG:  Solving for Ux, Initial residual = 0.000111468, Final residual = 4.76133e-22, No Iterations 29
DILUPBiCG:  Solving for Uy, Initial residual = 0.00387825, Final residual = 7.14902e-21, No Iterations 25
DICPCG:  Solving for p, Initial residual = 0.0235877, Final residual = 1.0178e-12, No Iterations 1001
time step continuity errors : sum local = 4.74144e-13, global = 1.00058e-15, cumulative = -2.63081e-14
DILUPBiCG:  Solving for nuTilda, Initial residual = 0.00156127, Final residual = 3.7992e-21, No Iterations 28
ExecutionTime = 8.13 s  ClockTime = 8 s

Time = 86

DILUPBiCG:  Solving for Ux, Initial residual = 0.000109925, Final residual = 5.59496e-21, No Iterations 27
DILUPBiCG:  Solving for Uy, Initial residual = 0.00381074, Final residual = 6.59807e-21, No Iterations 25
DICPCG:  Solving for p, Initial residual = 0.023095, Final residual = 7.61762e-13, No Iterations 1001
time step continuity errors : sum local = 4.75774e-13, global = -4.0412e-16, cumulative = -2.67123e-14
DILUPBiCG:  Solving for nuTilda, Initial residual = 0.00162524, Final residual = 4.17503e-21, No Iterations 28
ExecutionTime = 8.22 s  ClockTime = 8 s

Time = 87

DILUPBiCG:  Solving for Ux, Initial residual = 0.000108426, Final residual = 5.28892e-21, No Iterations 27
DILUPBiCG:  Solving for Uy, Initial residual = 0.00374737, Final residual = 5.52081e-21, No Iterations 25
DICPCG:  Solving for p, Initial residual = 0.0225836, Final residual = 1.04043e-12, No Iterations 1001
time step continuity errors : sum local = 4.88823e-13, global = -9.54913e-16, cumulative = -2.76672e-14
DILUPBiCG:  Solving for nuTilda, Initial residual = 0.00169429, Final residual = 2.29626e-21, No Iterations 29
ExecutionTime = 8.31 s  ClockTime = 8 s

Time = 88

DILUPBiCG:  Solving for Ux, Initial residual = 0.000106968, Final residual = 4.84265e-21, No Iterations 27
DILUPBiCG:  Solving for Uy, Initial residual = 0.00368922, Final residual = 4.05099e-21, No Iterations 25
DICPCG:  Solving for p, Initial residual = 0.0221112, Final residual = 1.02041e-12, No Iterations 1001
time step continuity errors : sum local = 4.75494e-13, global = -1.08001e-15, cumulative = -2.87472e-14
DILUPBiCG:  Solving for nuTilda, Initial residual = 0.00176918, Final residual = 8.73672e-21, No Iterations 28
ExecutionTime = 8.41 s  ClockTime = 8 s

Time = 89

DILUPBiCG:  Solving for Ux, Initial residual = 0.00010555, Final residual = 4.01644e-21, No Iterations 27
DILUPBiCG:  Solving for Uy, Initial residual = 0.0036364, Final residual = 2.51764e-21, No Iterations 25
DICPCG:  Solving for p, Initial residual = 0.021626, Final residual = 8.24162e-13, No Iterations 1001
time step continuity errors : sum local = 4.78318e-13, global = -2.91447e-15, cumulative = -3.16616e-14
DILUPBiCG:  Solving for nuTilda, Initial residual = 0.00185035, Final residual = 6.34581e-21, No Iterations 28
ExecutionTime = 8.51 s  ClockTime = 8 s

Time = 90

DILUPBiCG:  Solving for Ux, Initial residual = 0.00010417, Final residual = 3.18512e-21, No Iterations 27
DILUPBiCG:  Solving for Uy, Initial residual = 0.00358822, Final residual = 7.67752e-21, No Iterations 25
DICPCG:  Solving for p, Initial residual = 0.0211775, Final residual = 7.15588e-13, No Iterations 1001
time step continuity errors : sum local = 4.74175e-13, global = -1.06866e-15, cumulative = -3.27303e-14
DILUPBiCG:  Solving for nuTilda, Initial residual = 0.00193867, Final residual = 6.85456e-21, No Iterations 28
ExecutionTime = 8.61 s  ClockTime = 8 s

Time = 91

DILUPBiCG:  Solving for Ux, Initial residual = 0.000102829, Final residual = 1.18463e-21, No Iterations 28
DILUPBiCG:  Solving for Uy, Initial residual = 0.00354405, Final residual = 3.00213e-21, No Iterations 25
DICPCG:  Solving for p, Initial residual = 0.0207289, Final residual = 7.1696e-13, No Iterations 1001
time step continuity errors : sum local = 4.70007e-13, global = -1.12137e-15, cumulative = -3.38517e-14
DILUPBiCG:  Solving for nuTilda, Initial residual = 0.00203527, Final residual = 8.70303e-21, No Iterations 28
ExecutionTime = 8.7 s  ClockTime = 8 s

Time = 92

DILUPBiCG:  Solving for Ux, Initial residual = 0.000101523, Final residual = 3.65697e-21, No Iterations 27
DILUPBiCG:  Solving for Uy, Initial residual = 0.00350397, Final residual = 3.64493e-21, No Iterations 25
DICPCG:  Solving for p, Initial residual = 0.020307, Final residual = 8.70894e-13, No Iterations 1001
time step continuity errors : sum local = 4.73925e-13, global = -1.47234e-16, cumulative = -3.39989e-14
DILUPBiCG:  Solving for nuTilda, Initial residual = 0.00214109, Final residual = 2.05917e-21, No Iterations 29
ExecutionTime = 8.79 s  ClockTime = 8 s

Time = 93

DILUPBiCG:  Solving for Ux, Initial residual = 0.000100253, Final residual = 8.49997e-21, No Iterations 26
DILUPBiCG:  Solving for Uy, Initial residual = 0.00346791, Final residual = 7.39268e-21, No Iterations 25
DICPCG:  Solving for p, Initial residual = 0.0198771, Final residual = 4.32907e-13, No Iterations 1001
time step continuity errors : sum local = 4.85521e-13, global = -2.64996e-16, cumulative = -3.42639e-14
DILUPBiCG:  Solving for nuTilda, Initial residual = 0.00225729, Final residual = 2.07044e-21, No Iterations 29
ExecutionTime = 8.89 s  ClockTime = 8 s

Time = 94

DILUPBiCG:  Solving for Ux, Initial residual = 9.9016e-05, Final residual = 6.41174e-21, No Iterations 26
DILUPBiCG:  Solving for Uy, Initial residual = 0.00343574, Final residual = 2.88964e-21, No Iterations 25
DICPCG:  Solving for p, Initial residual = 0.0194606, Final residual = 4.68242e-13, No Iterations 1001
time step continuity errors : sum local = 4.76717e-13, global = -1.04017e-15, cumulative = -3.53041e-14
DILUPBiCG:  Solving for nuTilda, Initial residual = 0.00238545, Final residual = 2.68808e-21, No Iterations 29
ExecutionTime = 8.99 s  ClockTime = 9 s

Time = 95

DILUPBiCG:  Solving for Ux, Initial residual = 9.78121e-05, Final residual = 4.9663e-21, No Iterations 26
DILUPBiCG:  Solving for Uy, Initial residual = 0.00340698, Final residual = 2.44475e-21, No Iterations 25
DICPCG:  Solving for p, Initial residual = 0.0190658, Final residual = 4.16776e-13, No Iterations 1001
time step continuity errors : sum local = 4.8542e-13, global = -8.75556e-16, cumulative = -3.61796e-14
DILUPBiCG:  Solving for nuTilda, Initial residual = 0.00252736, Final residual = 4.6037e-21, No Iterations 29
ExecutionTime = 9.08 s  ClockTime = 9 s

Time = 96

DILUPBiCG:  Solving for Ux, Initial residual = 9.66399e-05, Final residual = 4.00159e-21, No Iterations 26
DILUPBiCG:  Solving for Uy, Initial residual = 0.00338104, Final residual = 3.47312e-21, No Iterations 25
DICPCG:  Solving for p, Initial residual = 0.0186746, Final residual = 3.46596e-13, No Iterations 1001
time step continuity errors : sum local = 4.66972e-13, global = -1.28659e-15, cumulative = -3.74662e-14
DILUPBiCG:  Solving for nuTilda, Initial residual = 0.00268536, Final residual = 6.41178e-21, No Iterations 29
ExecutionTime = 9.17 s  ClockTime = 9 s

Time = 97

DILUPBiCG:  Solving for Ux, Initial residual = 9.54984e-05, Final residual = 3.50527e-21, No Iterations 26
DILUPBiCG:  Solving for Uy, Initial residual = 0.00335761, Final residual = 3.175e-21, No Iterations 25
DICPCG:  Solving for p, Initial residual = 0.018287, Final residual = 5.66616e-13, No Iterations 1001
time step continuity errors : sum local = 4.68006e-13, global = -1.90494e-15, cumulative = -3.93712e-14
DILUPBiCG:  Solving for nuTilda, Initial residual = 0.00286214, Final residual = 7.00683e-21, No Iterations 29
ExecutionTime = 9.27 s  ClockTime = 9 s

Time = 98

DILUPBiCG:  Solving for Ux, Initial residual = 9.43867e-05, Final residual = 3.3062e-21, No Iterations 26
DILUPBiCG:  Solving for Uy, Initial residual = 0.00333631, Final residual = 2.2093e-21, No Iterations 25
DICPCG:  Solving for p, Initial residual = 0.017908, Final residual = 5.05882e-13, No Iterations 1001
time step continuity errors : sum local = 4.80793e-13, global = -4.8869e-17, cumulative = -3.942e-14
DILUPBiCG:  Solving for nuTilda, Initial residual = 0.00306101, Final residual = 6.30594e-21, No Iterations 29
ExecutionTime = 9.36 s  ClockTime = 9 s

Time = 99

DILUPBiCG:  Solving for Ux, Initial residual = 9.33039e-05, Final residual = 3.25919e-21, No Iterations 26
DILUPBiCG:  Solving for Uy, Initial residual = 0.00331693, Final residual = 2.05812e-21, No Iterations 25
DICPCG:  Solving for p, Initial residual = 0.0175338, Final residual = 4.22657e-13, No Iterations 1001
time step continuity errors : sum local = 4.71039e-13, global = 1.07352e-15, cumulative = -3.83465e-14
DILUPBiCG:  Solving for nuTilda, Initial residual = 0.00328621, Final residual = 4.70594e-21, No Iterations 29
ExecutionTime = 9.45 s  ClockTime = 9 s

Time = 100

DILUPBiCG:  Solving for Ux, Initial residual = 9.22492e-05, Final residual = 3.37015e-21, No Iterations 26
DILUPBiCG:  Solving for Uy, Initial residual = 0.00329925, Final residual = 5.8469e-21, No Iterations 25
DICPCG:  Solving for p, Initial residual = 0.0171736, Final residual = 4.22027e-13, No Iterations 1001
time step continuity errors : sum local = 4.72418e-13, global = 2.39524e-15, cumulative = -3.59513e-14
DILUPBiCG:  Solving for nuTilda, Initial residual = 0.00354337, Final residual = 3.51011e-21, No Iterations 29
ExecutionTime = 9.55 s  ClockTime = 9 s

Time = 101

DILUPBiCG:  Solving for Ux, Initial residual = 9.12216e-05, Final residual = 3.65254e-21, No Iterations 26
DILUPBiCG:  Solving for Uy, Initial residual = 0.00328298, Final residual = 6.68935e-21, No Iterations 25
DICPCG:  Solving for p, Initial residual = 0.0168186, Final residual = 4.42076e-13, No Iterations 1001
time step continuity errors : sum local = 4.83801e-13, global = 2.52593e-15, cumulative = -3.34253e-14
DILUPBiCG:  Solving for nuTilda, Initial residual = 0.00383924, Final residual = 2.96572e-21, No Iterations 29
ExecutionTime = 9.65 s  ClockTime = 9 s

Time = 102

DILUPBiCG:  Solving for Ux, Initial residual = 9.02203e-05, Final residual = 4.24895e-21, No Iterations 26
DILUPBiCG:  Solving for Uy, Initial residual = 0.00326773, Final residual = 7.40423e-21, No Iterations 25
DICPCG:  Solving for p, Initial residual = 0.0164747, Final residual = 4.41647e-13, No Iterations 1001
time step continuity errors : sum local = 4.71544e-13, global = -1.74761e-15, cumulative = -3.5173e-14
DILUPBiCG:  Solving for nuTilda, Initial residual = 0.0041829, Final residual = 2.77011e-21, No Iterations 29
ExecutionTime = 9.74 s  ClockTime = 9 s

Time = 103

DILUPBiCG:  Solving for Ux, Initial residual = 8.92447e-05, Final residual = 5.44577e-21, No Iterations 26
DILUPBiCG:  Solving for Uy, Initial residual = 0.00325308, Final residual = 4.84723e-21, No Iterations 25
DICPCG:  Solving for p, Initial residual = 0.016131, Final residual = 3.75812e-13, No Iterations 1001
time step continuity errors : sum local = 4.72874e-13, global = -2.06775e-15, cumulative = -3.72407e-14
DILUPBiCG:  Solving for nuTilda, Initial residual = 0.0045867, Final residual = 2.82098e-21, No Iterations 29
ExecutionTime = 9.83 s  ClockTime = 9 s

Time = 104

DILUPBiCG:  Solving for Ux, Initial residual = 8.8294e-05, Final residual = 3.49937e-21, No Iterations 27
DILUPBiCG:  Solving for Uy, Initial residual = 0.00323878, Final residual = 4.04547e-21, No Iterations 25
DICPCG:  Solving for p, Initial residual = 0.0157927, Final residual = 2.44731e-13, No Iterations 1001
time step continuity errors : sum local = 4.81205e-13, global = -2.77172e-15, cumulative = -4.00124e-14
DILUPBiCG:  Solving for nuTilda, Initial residual = 0.00506742, Final residual = 3.08402e-21, No Iterations 29
ExecutionTime = 9.92 s  ClockTime = 10 s

Time = 105

DILUPBiCG:  Solving for Ux, Initial residual = 8.73675e-05, Final residual = 2.13533e-21, No Iterations 27
DILUPBiCG:  Solving for Uy, Initial residual = 0.00322478, Final residual = 3.70091e-21, No Iterations 25
DICPCG:  Solving for p, Initial residual = 0.0154649, Final residual = 2.42266e-13, No Iterations 1001
time step continuity errors : sum local = 4.69726e-13, global = 3.68583e-15, cumulative = -3.63266e-14
DILUPBiCG:  Solving for nuTilda, Initial residual = 0.00564805, Final residual = 3.50758e-21, No Iterations 29
ExecutionTime = 10.01 s  ClockTime = 10 s

Time = 106

DILUPBiCG:  Solving for Ux, Initial residual = 8.64653e-05, Final residual = 1.92968e-21, No Iterations 27
DILUPBiCG:  Solving for Uy, Initial residual = 0.00321119, Final residual = 9.62384e-21, No Iterations 24
DICPCG:  Solving for p, Initial residual = 0.0151477, Final residual = 2.49496e-13, No Iterations 1001
time step continuity errors : sum local = 4.65023e-13, global = 1.54422e-15, cumulative = -3.47824e-14
DILUPBiCG:  Solving for nuTilda, Initial residual = 0.00636197, Final residual = 4.0114e-21, No Iterations 29
ExecutionTime = 10.1 s  ClockTime = 10 s

Time = 107

DILUPBiCG:  Solving for Ux, Initial residual = 8.55867e-05, Final residual = 1.9828e-21, No Iterations 27
DILUPBiCG:  Solving for Uy, Initial residual = 0.00319799, Final residual = 9.73623e-21, No Iterations 25
DICPCG:  Solving for p, Initial residual = 0.0148357, Final residual = 2.38183e-13, No Iterations 1001
time step continuity errors : sum local = 4.73628e-13, global = -2.82897e-16, cumulative = -3.50653e-14
DILUPBiCG:  Solving for nuTilda, Initial residual = 0.00725803, Final residual = 4.59358e-21, No Iterations 29
ExecutionTime = 10.19 s  ClockTime = 10 s

Time = 108

DILUPBiCG:  Solving for Ux, Initial residual = 8.47307e-05, Final residual = 2.18693e-21, No Iterations 27
DILUPBiCG:  Solving for Uy, Initial residual = 0.00318505, Final residual = 1.56691e-21, No Iterations 26
DICPCG:  Solving for p, Initial residual = 0.0145219, Final residual = 1.95418e-13, No Iterations 1001
time step continuity errors : sum local = 4.76848e-13, global = 2.68991e-15, cumulative = -3.23754e-14
DILUPBiCG:  Solving for nuTilda, Initial residual = 0.00838795, Final residual = 5.28389e-21, No Iterations 29
ExecutionTime = 10.29 s  ClockTime = 10 s

Time = 109

DILUPBiCG:  Solving for Ux, Initial residual = 8.38966e-05, Final residual = 2.54151e-21, No Iterations 27
DILUPBiCG:  Solving for Uy, Initial residual = 0.0031721, Final residual = 1.03264e-21, No Iterations 26
DICPCG:  Solving for p, Initial residual = 0.0142237, Final residual = 1.83646e-13, No Iterations 1001
time step continuity errors : sum local = 4.75266e-13, global = -2.79858e-15, cumulative = -3.51739e-14
DILUPBiCG:  Solving for nuTilda, Initial residual = 0.00730974, Final residual = 4.58344e-21, No Iterations 29
ExecutionTime = 10.38 s  ClockTime = 10 s

Time = 110

DILUPBiCG:  Solving for Ux, Initial residual = 8.30838e-05, Final residual = 9.41698e-21, No Iterations 26
DILUPBiCG:  Solving for Uy, Initial residual = 0.00315885, Final residual = 3.31429e-21, No Iterations 25
DICPCG:  Solving for p, Initial residual = 0.0139233, Final residual = 1.84555e-13, No Iterations 1001
time step continuity errors : sum local = 4.92014e-13, global = 3.85883e-15, cumulative = -3.13151e-14
DILUPBiCG:  Solving for nuTilda, Initial residual = 0.0064602, Final residual = 4.12158e-21, No Iterations 29
ExecutionTime = 10.47 s  ClockTime = 10 s

Time = 111

DILUPBiCG:  Solving for Ux, Initial residual = 8.22916e-05, Final residual = 7.97002e-21, No Iterations 26
DILUPBiCG:  Solving for Uy, Initial residual = 0.00314532, Final residual = 2.46238e-21, No Iterations 25
DICPCG:  Solving for p, Initial residual = 0.0136391, Final residual = 1.55174e-13, No Iterations 1001
time step continuity errors : sum local = 4.82825e-13, global = -1.35914e-15, cumulative = -3.26742e-14
DILUPBiCG:  Solving for nuTilda, Initial residual = 0.00580209, Final residual = 4.30913e-21, No Iterations 29
ExecutionTime = 10.56 s  ClockTime = 10 s

Time = 112

DILUPBiCG:  Solving for Ux, Initial residual = 8.15196e-05, Final residual = 5.90452e-21, No Iterations 26
DILUPBiCG:  Solving for Uy, Initial residual = 0.00313174, Final residual = 7.35324e-21, No Iterations 25
DICPCG:  Solving for p, Initial residual = 0.0133537, Final residual = 1.43496e-13, No Iterations 1001
time step continuity errors : sum local = 4.82338e-13, global = 4.41772e-15, cumulative = -2.82565e-14
DILUPBiCG:  Solving for nuTilda, Initial residual = 0.00527763, Final residual = 6.55069e-21, No Iterations 29
ExecutionTime = 10.65 s  ClockTime = 10 s

Time = 113

DILUPBiCG:  Solving for Ux, Initial residual = 8.07674e-05, Final residual = 5.0146e-21, No Iterations 26
DILUPBiCG:  Solving for Uy, Initial residual = 0.00311836, Final residual = 1.92349e-21, No Iterations 26
DICPCG:  Solving for p, Initial residual = 0.0130818, Final residual = 1.10829e-13, No Iterations 1001
time step continuity errors : sum local = 4.77055e-13, global = 1.5797e-15, cumulative = -2.66768e-14
DILUPBiCG:  Solving for nuTilda, Initial residual = 0.00485038, Final residual = 2.5981e-21, No Iterations 29
ExecutionTime = 10.74 s  ClockTime = 10 s

Time = 114

DILUPBiCG:  Solving for Ux, Initial residual = 8.00358e-05, Final residual = 8.3402e-21, No Iterations 26
DILUPBiCG:  Solving for Uy, Initial residual = 0.00310537, Final residual = 1.53321e-21, No Iterations 26
DICPCG:  Solving for p, Initial residual = 0.012809, Final residual = 7.91391e-14, No Iterations 1001
time step continuity errors : sum local = 4.67597e-13, global = -3.20497e-15, cumulative = -2.98818e-14
DILUPBiCG:  Solving for nuTilda, Initial residual = 0.0044962, Final residual = 2.35776e-21, No Iterations 29
ExecutionTime = 10.83 s  ClockTime = 10 s

Time = 115

DILUPBiCG:  Solving for Ux, Initial residual = 7.93238e-05, Final residual = 4.97155e-22, No Iterations 28
DILUPBiCG:  Solving for Uy, Initial residual = 0.0030927, Final residual = 9.83538e-21, No Iterations 25
DICPCG:  Solving for p, Initial residual = 0.0125522, Final residual = 6.48972e-14, No Iterations 1001
time step continuity errors : sum local = 4.80788e-13, global = -1.32277e-15, cumulative = -3.12046e-14
DILUPBiCG:  Solving for nuTilda, Initial residual = 0.00419798, Final residual = 2.28648e-21, No Iterations 29
ExecutionTime = 10.92 s  ClockTime = 11 s

Time = 116

DILUPBiCG:  Solving for Ux, Initial residual = 7.86303e-05, Final residual = 6.93825e-21, No Iterations 27
DILUPBiCG:  Solving for Uy, Initial residual = 0.00308008, Final residual = 7.82439e-21, No Iterations 25
DICPCG:  Solving for p, Initial residual = 0.0122962, Final residual = 5.92504e-14, No Iterations 1001
time step continuity errors : sum local = 4.7911e-13, global = 2.96122e-15, cumulative = -2.82434e-14
DILUPBiCG:  Solving for nuTilda, Initial residual = 0.00394371, Final residual = 2.28176e-21, No Iterations 29
ExecutionTime = 11.01 s  ClockTime = 11 s

Time = 117

DILUPBiCG:  Solving for Ux, Initial residual = 7.7955e-05, Final residual = 4.67654e-21, No Iterations 27
DILUPBiCG:  Solving for Uy, Initial residual = 0.00306727, Final residual = 8.42534e-21, No Iterations 25
DICPCG:  Solving for p, Initial residual = 0.0120444, Final residual = 4.24741e-14, No Iterations 1001
time step continuity errors : sum local = 4.80364e-13, global = 6.2951e-16, cumulative = -2.76138e-14
DILUPBiCG:  Solving for nuTilda, Initial residual = 0.0037247, Final residual = 2.34114e-21, No Iterations 29
ExecutionTime = 11.1 s  ClockTime = 11 s

Time = 118

DILUPBiCG:  Solving for Ux, Initial residual = 7.72973e-05, Final residual = 3.69878e-21, No Iterations 27
DILUPBiCG:  Solving for Uy, Initial residual = 0.00305422, Final residual = 8.90668e-21, No Iterations 25
DICPCG:  Solving for p, Initial residual = 0.0118031, Final residual = 3.58581e-14, No Iterations 1001
time step continuity errors : sum local = 4.69582e-13, global = 7.37834e-16, cumulative = -2.6876e-14
DILUPBiCG:  Solving for nuTilda, Initial residual = 0.00353436, Final residual = 2.46091e-21, No Iterations 29
ExecutionTime = 11.2 s  ClockTime = 11 s

Time = 119

DILUPBiCG:  Solving for Ux, Initial residual = 7.66577e-05, Final residual = 3.26948e-21, No Iterations 27
DILUPBiCG:  Solving for Uy, Initial residual = 0.00304115, Final residual = 4.82826e-21, No Iterations 26
DICPCG:  Solving for p, Initial residual = 0.0115638, Final residual = 3.79333e-14, No Iterations 1001
time step continuity errors : sum local = 4.75111e-13, global = -2.63032e-15, cumulative = -2.95063e-14
DILUPBiCG:  Solving for nuTilda, Initial residual = 0.00336752, Final residual = 8.00909e-21, No Iterations 28
ExecutionTime = 11.3 s  ClockTime = 11 s

Time = 120

DILUPBiCG:  Solving for Ux, Initial residual = 7.60368e-05, Final residual = 3.18759e-21, No Iterations 27
DILUPBiCG:  Solving for Uy, Initial residual = 0.00302842, Final residual = 7.69644e-21, No Iterations 25
DICPCG:  Solving for p, Initial residual = 0.011333, Final residual = 4.05997e-14, No Iterations 1001
time step continuity errors : sum local = 4.81016e-13, global = -2.86493e-16, cumulative = -2.97928e-14
DILUPBiCG:  Solving for nuTilda, Initial residual = 0.00322032, Final residual = 6.67718e-21, No Iterations 28
ExecutionTime = 11.39 s  ClockTime = 11 s

Time = 121

DILUPBiCG:  Solving for Ux, Initial residual = 7.54327e-05, Final residual = 3.3985e-21, No Iterations 27
DILUPBiCG:  Solving for Uy, Initial residual = 0.00301633, Final residual = 6.7866e-21, No Iterations 25
DICPCG:  Solving for p, Initial residual = 0.0111026, Final residual = 3.66894e-14, No Iterations 1001
time step continuity errors : sum local = 4.78523e-13, global = -1.03317e-15, cumulative = -3.0826e-14
DILUPBiCG:  Solving for nuTilda, Initial residual = 0.0030899, Final residual = 5.83856e-21, No Iterations 28
ExecutionTime = 11.48 s  ClockTime = 11 s

Time = 122

DILUPBiCG:  Solving for Ux, Initial residual = 7.48452e-05, Final residual = 3.92013e-21, No Iterations 27
DILUPBiCG:  Solving for Uy, Initial residual = 0.0030049, Final residual = 6.47114e-21, No Iterations 25
DICPCG:  Solving for p, Initial residual = 0.0108791, Final residual = 3.42035e-14, No Iterations 1001
time step continuity errors : sum local = 4.84651e-13, global = 1.0336e-15, cumulative = -2.97924e-14
DILUPBiCG:  Solving for nuTilda, Initial residual = 0.00297349, Final residual = 5.31867e-21, No Iterations 28
ExecutionTime = 11.56 s  ClockTime = 11 s

Time = 123

DILUPBiCG:  Solving for Ux, Initial residual = 7.42736e-05, Final residual = 4.79419e-21, No Iterations 27
DILUPBiCG:  Solving for Uy, Initial residual = 0.00299392, Final residual = 5.94063e-21, No Iterations 25
DICPCG:  Solving for p, Initial residual = 0.010652, Final residual = 2.65933e-14, No Iterations 1001
time step continuity errors : sum local = 4.75446e-13, global = -5.43795e-16, cumulative = -3.03362e-14
DILUPBiCG:  Solving for nuTilda, Initial residual = 0.00286907, Final residual = 5.00188e-21, No Iterations 28
ExecutionTime = 11.65 s  ClockTime = 11 s

Time = 124

DILUPBiCG:  Solving for Ux, Initial residual = 7.372e-05, Final residual = 6.05855e-21, No Iterations 27
DILUPBiCG:  Solving for Uy, Initial residual = 0.002983, Final residual = 4.66021e-21, No Iterations 25
DICPCG:  Solving for p, Initial residual = 0.0104352, Final residual = 2.19144e-14, No Iterations 1001
time step continuity errors : sum local = 4.69772e-13, global = -1.54041e-16, cumulative = -3.04902e-14
DILUPBiCG:  Solving for nuTilda, Initial residual = 0.00277502, Final residual = 4.87545e-21, No Iterations 28
ExecutionTime = 11.74 s  ClockTime = 11 s

Time = 125

DILUPBiCG:  Solving for Ux, Initial residual = 7.31826e-05, Final residual = 7.6801e-21, No Iterations 27
DILUPBiCG:  Solving for Uy, Initial residual = 0.0029719, Final residual = 3.32262e-21, No Iterations 25
DICPCG:  Solving for p, Initial residual = 0.010219, Final residual = 1.97834e-14, No Iterations 1001
time step continuity errors : sum local = 4.89312e-13, global = -2.95085e-16, cumulative = -3.07853e-14
DILUPBiCG:  Solving for nuTilda, Initial residual = 0.00269003, Final residual = 5.05993e-21, No Iterations 28
ExecutionTime = 11.83 s  ClockTime = 11 s

Time = 126

DILUPBiCG:  Solving for Ux, Initial residual = 7.26607e-05, Final residual = 9.4637e-21, No Iterations 27
DILUPBiCG:  Solving for Uy, Initial residual = 0.00296069, Final residual = 3.83366e-21, No Iterations 25
DICPCG:  Solving for p, Initial residual = 0.0100102, Final residual = 1.51411e-14, No Iterations 1001
time step continuity errors : sum local = 4.91407e-13, global = -7.89772e-16, cumulative = -3.15751e-14
DILUPBiCG:  Solving for nuTilda, Initial residual = 0.00261292, Final residual = 5.84904e-21, No Iterations 28
ExecutionTime = 11.92 s  ClockTime = 12 s

Time = 127

DILUPBiCG:  Solving for Ux, Initial residual = 7.21542e-05, Final residual = 3.11147e-22, No Iterations 28
DILUPBiCG:  Solving for Uy, Initial residual = 0.00294975, Final residual = 2.69104e-21, No Iterations 26
DICPCG:  Solving for p, Initial residual = 0.00979992, Final residual = 7.77135e-15, No Iterations 1001
time step continuity errors : sum local = 4.867e-13, global = 7.70337e-16, cumulative = -3.08047e-14
DILUPBiCG:  Solving for nuTilda, Initial residual = 0.00254274, Final residual = 8.71333e-21, No Iterations 28
ExecutionTime = 12.01 s  ClockTime = 12 s

Time = 128

DILUPBiCG:  Solving for Ux, Initial residual = 7.16646e-05, Final residual = 3.291e-22, No Iterations 28
DILUPBiCG:  Solving for Uy, Initial residual = 0.00293947, Final residual = 5.56248e-21, No Iterations 25
DICPCG:  Solving for p, Initial residual = 0.0095983, Final residual = 5.94372e-15, No Iterations 1001
time step continuity errors : sum local = 4.73151e-13, global = 3.44077e-16, cumulative = -3.04607e-14
DILUPBiCG:  Solving for nuTilda, Initial residual = 0.0024787, Final residual = 4.6729e-21, No Iterations 29
ExecutionTime = 12.1 s  ClockTime = 12 s

Time = 129

DILUPBiCG:  Solving for Ux, Initial residual = 7.11903e-05, Final residual = 3.54669e-22, No Iterations 28
DILUPBiCG:  Solving for Uy, Initial residual = 0.00293007, Final residual = 8.57564e-21, No Iterations 24
DICPCG:  Solving for p, Initial residual = 0.0093943, Final residual = 9.49701e-15, No Iterations 1001
time step continuity errors : sum local = 4.73507e-13, global = 2.76852e-17, cumulative = -3.0433e-14
DILUPBiCG:  Solving for nuTilda, Initial residual = 0.00242015, Final residual = 8.99235e-21, No Iterations 28
ExecutionTime = 12.18 s  ClockTime = 12 s

Time = 130

DILUPBiCG:  Solving for Ux, Initial residual = 7.07322e-05, Final residual = 3.79894e-22, No Iterations 28
DILUPBiCG:  Solving for Uy, Initial residual = 0.00292146, Final residual = 7.77888e-21, No Iterations 24
DICPCG:  Solving for p, Initial residual = 0.00919922, Final residual = 9.36838e-15, No Iterations 1001
time step continuity errors : sum local = 4.84674e-13, global = -3.5641e-16, cumulative = -3.07894e-14
DILUPBiCG:  Solving for nuTilda, Initial residual = 0.0023665, Final residual = 5.98126e-21, No Iterations 28
ExecutionTime = 12.27 s  ClockTime = 12 s

Time = 131

DILUPBiCG:  Solving for Ux, Initial residual = 7.02897e-05, Final residual = 3.96292e-22, No Iterations 28
DILUPBiCG:  Solving for Uy, Initial residual = 0.00291324, Final residual = 9.48517e-21, No Iterations 24
DICPCG:  Solving for p, Initial residual = 0.00900291, Final residual = 7.98188e-15, No Iterations 1001
time step continuity errors : sum local = 4.83342e-13, global = 2.14774e-16, cumulative = -3.05746e-14
DILUPBiCG:  Solving for nuTilda, Initial residual = 0.00231726, Final residual = 5.54179e-21, No Iterations 28
ExecutionTime = 12.37 s  ClockTime = 12 s

Time = 132

DILUPBiCG:  Solving for Ux, Initial residual = 6.98633e-05, Final residual = 3.93183e-22, No Iterations 28
DILUPBiCG:  Solving for Uy, Initial residual = 0.002905, Final residual = 1.97905e-21, No Iterations 25
DICPCG:  Solving for p, Initial residual = 0.00881178, Final residual = 6.47452e-15, No Iterations 1001
time step continuity errors : sum local = 4.83927e-13, global = 1.79719e-15, cumulative = -2.87774e-14
DILUPBiCG:  Solving for nuTilda, Initial residual = 0.00227194, Final residual = 5.67066e-21, No Iterations 28
ExecutionTime = 12.46 s  ClockTime = 12 s

Time = 133

DILUPBiCG:  Solving for Ux, Initial residual = 6.94519e-05, Final residual = 8.52072e-21, No Iterations 27
DILUPBiCG:  Solving for Uy, Initial residual = 0.00289652, Final residual = 2.1841e-21, No Iterations 25
DICPCG:  Solving for p, Initial residual = 0.00862414, Final residual = 4.74961e-15, No Iterations 1001
time step continuity errors : sum local = 4.87798e-13, global = 9.37231e-16, cumulative = -2.78402e-14
DILUPBiCG:  Solving for nuTilda, Initial residual = 0.00223015, Final residual = 6.11248e-21, No Iterations 28
ExecutionTime = 12.56 s  ClockTime = 12 s

Time = 134

DILUPBiCG:  Solving for Ux, Initial residual = 6.90569e-05, Final residual = 6.75062e-21, No Iterations 27
DILUPBiCG:  Solving for Uy, Initial residual = 0.00288799, Final residual = 4.70893e-21, No Iterations 25
DICPCG:  Solving for p, Initial residual = 0.00843919, Final residual = 3.37809e-15, No Iterations 1001
[...]
DILUPBiCG:  Solving for Uy, Initial residual = 1.05591e-06, Final residual = 2.36279e-21, No Iterations 22
DICPCG:  Solving for p, Initial residual = 1.05024e-07, Final residual = 9.59138e-21, No Iterations 845
time step continuity errors : sum local = 5.5387e-13, global = 1.25871e-15, cumulative = 9.35419e-14
DILUPBiCG:  Solving for nuTilda, Initial residual = 6.10118e-08, Final residual = 7.8039e-21, No Iterations 20
ExecutionTime = 405.23 s  ClockTime = 405 s

Time = 4859

DILUPBiCG:  Solving for Ux, Initial residual = 3.4531e-08, Final residual = 9.94204e-22, No Iterations 20
DILUPBiCG:  Solving for Uy, Initial residual = 1.05415e-06, Final residual = 2.36996e-21, No Iterations 22
DICPCG:  Solving for p, Initial residual = 1.04863e-07, Final residual = 9.57305e-21, No Iterations 845
time step continuity errors : sum local = 5.61137e-13, global = 1.76364e-15, cumulative = 9.53055e-14
DILUPBiCG:  Solving for nuTilda, Initial residual = 6.08998e-08, Final residual = 7.7904e-21, No Iterations 20
ExecutionTime = 405.31 s  ClockTime = 405 s

Time = 4860

DILUPBiCG:  Solving for Ux, Initial residual = 3.44697e-08, Final residual = 9.92332e-22, No Iterations 20
DILUPBiCG:  Solving for Uy, Initial residual = 1.0524e-06, Final residual = 2.37712e-21, No Iterations 22
DICPCG:  Solving for p, Initial residual = 1.04703e-07, Final residual = 9.69873e-21, No Iterations 845
time step continuity errors : sum local = 5.60449e-13, global = -4.92534e-15, cumulative = 9.03802e-14
DILUPBiCG:  Solving for nuTilda, Initial residual = 6.07881e-08, Final residual = 7.77692e-21, No Iterations 20
ExecutionTime = 405.38 s  ClockTime = 405 s

Time = 4861

DILUPBiCG:  Solving for Ux, Initial residual = 3.44084e-08, Final residual = 9.90466e-22, No Iterations 20
DILUPBiCG:  Solving for Uy, Initial residual = 1.05064e-06, Final residual = 2.38478e-21, No Iterations 22
DICPCG:  Solving for p, Initial residual = 1.04542e-07, Final residual = 9.57019e-21, No Iterations 845
time step continuity errors : sum local = 5.66946e-13, global = 1.4904e-15, cumulative = 9.18706e-14
DILUPBiCG:  Solving for nuTilda, Initial residual = 6.06765e-08, Final residual = 7.76346e-21, No Iterations 20
ExecutionTime = 405.45 s  ClockTime = 405 s

Time = 4862

DILUPBiCG:  Solving for Ux, Initial residual = 3.43473e-08, Final residual = 9.88592e-22, No Iterations 20
DILUPBiCG:  Solving for Uy, Initial residual = 1.04889e-06, Final residual = 2.39199e-21, No Iterations 22
DICPCG:  Solving for p, Initial residual = 1.04382e-07, Final residual = 9.61398e-21, No Iterations 845
time step continuity errors : sum local = 5.4688e-13, global = -1.68204e-16, cumulative = 9.17024e-14
DILUPBiCG:  Solving for nuTilda, Initial residual = 6.05651e-08, Final residual = 7.75002e-21, No Iterations 20
ExecutionTime = 405.53 s  ClockTime = 405 s

Time = 4863

DILUPBiCG:  Solving for Ux, Initial residual = 3.42862e-08, Final residual = 9.86727e-22, No Iterations 20
DILUPBiCG:  Solving for Uy, Initial residual = 1.04714e-06, Final residual = 2.39966e-21, No Iterations 22
DICPCG:  Solving for p, Initial residual = 1.04222e-07, Final residual = 9.5578e-21, No Iterations 845
time step continuity errors : sum local = 5.47804e-13, global = -2.24369e-16, cumulative = 9.1478e-14
DILUPBiCG:  Solving for nuTilda, Initial residual = 6.04539e-08, Final residual = 7.7366e-21, No Iterations 20
ExecutionTime = 405.6 s  ClockTime = 405 s

Time = 4864

DILUPBiCG:  Solving for Ux, Initial residual = 3.42253e-08, Final residual = 9.84859e-22, No Iterations 20
DILUPBiCG:  Solving for Uy, Initial residual = 1.0454e-06, Final residual = 2.40671e-21, No Iterations 22
DICPCG:  Solving for p, Initial residual = 1.04063e-07, Final residual = 9.5741e-21, No Iterations 845
time step continuity errors : sum local = 5.5868e-13, global = -1.81859e-15, cumulative = 8.96594e-14
DILUPBiCG:  Solving for nuTilda, Initial residual = 6.03429e-08, Final residual = 7.72321e-21, No Iterations 20
ExecutionTime = 405.68 s  ClockTime = 405 s

Time = 4865

DILUPBiCG:  Solving for Ux, Initial residual = 3.41645e-08, Final residual = 9.83006e-22, No Iterations 20
DILUPBiCG:  Solving for Uy, Initial residual = 1.04366e-06, Final residual = 2.41405e-21, No Iterations 22
DICPCG:  Solving for p, Initial residual = 1.03904e-07, Final residual = 9.67337e-21, No Iterations 845
time step continuity errors : sum local = 5.52529e-13, global = 8.48675e-16, cumulative = 9.05081e-14
DILUPBiCG:  Solving for nuTilda, Initial residual = 6.02321e-08, Final residual = 7.70983e-21, No Iterations 20
ExecutionTime = 405.76 s  ClockTime = 405 s

Time = 4866

DILUPBiCG:  Solving for Ux, Initial residual = 3.41037e-08, Final residual = 9.81141e-22, No Iterations 20
DILUPBiCG:  Solving for Uy, Initial residual = 1.04192e-06, Final residual = 2.42175e-21, No Iterations 22
DICPCG:  Solving for p, Initial residual = 1.03745e-07, Final residual = 9.49372e-21, No Iterations 845
time step continuity errors : sum local = 5.53199e-13, global = 2.07009e-15, cumulative = 9.25782e-14
DILUPBiCG:  Solving for nuTilda, Initial residual = 6.01215e-08, Final residual = 7.69648e-21, No Iterations 20
ExecutionTime = 405.83 s  ClockTime = 405 s

Time = 4867

DILUPBiCG:  Solving for Ux, Initial residual = 3.40431e-08, Final residual = 9.79288e-22, No Iterations 20
DILUPBiCG:  Solving for Uy, Initial residual = 1.04018e-06, Final residual = 2.42946e-21, No Iterations 22
DICPCG:  Solving for p, Initial residual = 1.03586e-07, Final residual = 9.51065e-21, No Iterations 845
time step continuity errors : sum local = 5.55842e-13, global = 1.79189e-15, cumulative = 9.43701e-14
DILUPBiCG:  Solving for nuTilda, Initial residual = 6.00111e-08, Final residual = 7.68315e-21, No Iterations 20
ExecutionTime = 405.92 s  ClockTime = 406 s

Time = 4868

DILUPBiCG:  Solving for Ux, Initial residual = 3.39826e-08, Final residual = 9.77436e-22, No Iterations 20
DILUPBiCG:  Solving for Uy, Initial residual = 1.03844e-06, Final residual = 2.43677e-21, No Iterations 22
DICPCG:  Solving for p, Initial residual = 1.03427e-07, Final residual = 9.49596e-21, No Iterations 845
time step continuity errors : sum local = 5.59298e-13, global = 1.03126e-15, cumulative = 9.54013e-14
DILUPBiCG:  Solving for nuTilda, Initial residual = 5.99009e-08, Final residual = 7.66983e-21, No Iterations 20
ExecutionTime = 406 s  ClockTime = 406 s

Time = 4869

DILUPBiCG:  Solving for Ux, Initial residual = 3.39222e-08, Final residual = 9.75598e-22, No Iterations 20
DILUPBiCG:  Solving for Uy, Initial residual = 1.03671e-06, Final residual = 2.44407e-21, No Iterations 22
DICPCG:  Solving for p, Initial residual = 1.03269e-07, Final residual = 9.59686e-21, No Iterations 845
time step continuity errors : sum local = 5.64696e-13, global = 1.07244e-15, cumulative = 9.64738e-14
DILUPBiCG:  Solving for nuTilda, Initial residual = 5.97909e-08, Final residual = 7.65654e-21, No Iterations 20
ExecutionTime = 406.07 s  ClockTime = 406 s

Time = 4870

DILUPBiCG:  Solving for Ux, Initial residual = 3.38618e-08, Final residual = 9.73754e-22, No Iterations 20
DILUPBiCG:  Solving for Uy, Initial residual = 1.03498e-06, Final residual = 2.45167e-21, No Iterations 22
DICPCG:  Solving for p, Initial residual = 1.0311e-07, Final residual = 9.4919e-21, No Iterations 845
time step continuity errors : sum local = 5.51833e-13, global = -1.62864e-15, cumulative = 9.48451e-14
DILUPBiCG:  Solving for nuTilda, Initial residual = 5.96811e-08, Final residual = 7.64327e-21, No Iterations 20
ExecutionTime = 406.15 s  ClockTime = 406 s

Time = 4871

DILUPBiCG:  Solving for Ux, Initial residual = 3.38016e-08, Final residual = 9.71927e-22, No Iterations 20
DILUPBiCG:  Solving for Uy, Initial residual = 1.03326e-06, Final residual = 2.45944e-21, No Iterations 22
DICPCG:  Solving for p, Initial residual = 1.02953e-07, Final residual = 9.49882e-21, No Iterations 845
time step continuity errors : sum local = 5.58167e-13, global = -2.80128e-15, cumulative = 9.20438e-14
DILUPBiCG:  Solving for nuTilda, Initial residual = 5.95715e-08, Final residual = 7.63002e-21, No Iterations 20
ExecutionTime = 406.23 s  ClockTime = 406 s

Time = 4872

DILUPBiCG:  Solving for Ux, Initial residual = 3.37415e-08, Final residual = 9.70088e-22, No Iterations 20
DILUPBiCG:  Solving for Uy, Initial residual = 1.03154e-06, Final residual = 2.46675e-21, No Iterations 22
DICPCG:  Solving for p, Initial residual = 1.02795e-07, Final residual = 9.50495e-21, No Iterations 845
time step continuity errors : sum local = 5.56727e-13, global = -6.16336e-16, cumulative = 9.14275e-14
DILUPBiCG:  Solving for nuTilda, Initial residual = 5.9462e-08, Final residual = 7.61679e-21, No Iterations 20
ExecutionTime = 406.31 s  ClockTime = 406 s

Time = 4873

DILUPBiCG:  Solving for Ux, Initial residual = 3.36815e-08, Final residual = 9.68254e-22, No Iterations 20
DILUPBiCG:  Solving for Uy, Initial residual = 1.02981e-06, Final residual = 2.4743e-21, No Iterations 22
DICPCG:  Solving for p, Initial residual = 1.02637e-07, Final residual = 9.56354e-21, No Iterations 845
time step continuity errors : sum local = 5.48344e-13, global = 9.08299e-16, cumulative = 9.23358e-14
DILUPBiCG:  Solving for nuTilda, Initial residual = 5.93528e-08, Final residual = 7.60358e-21, No Iterations 20
ExecutionTime = 406.38 s  ClockTime = 406 s

Time = 4874

DILUPBiCG:  Solving for Ux, Initial residual = 3.36216e-08, Final residual = 9.66419e-22, No Iterations 20
DILUPBiCG:  Solving for Uy, Initial residual = 1.0281e-06, Final residual = 2.48196e-21, No Iterations 22
DICPCG:  Solving for p, Initial residual = 1.0248e-07, Final residual = 9.48428e-21, No Iterations 845
time step continuity errors : sum local = 5.54284e-13, global = 8.88894e-16, cumulative = 9.32247e-14
DILUPBiCG:  Solving for nuTilda, Initial residual = 5.92438e-08, Final residual = 7.59039e-21, No Iterations 20
ExecutionTime = 406.46 s  ClockTime = 406 s

Time = 4875

DILUPBiCG:  Solving for Ux, Initial residual = 3.35618e-08, Final residual = 9.64612e-22, No Iterations 20
DILUPBiCG:  Solving for Uy, Initial residual = 1.02638e-06, Final residual = 2.48942e-21, No Iterations 22
DICPCG:  Solving for p, Initial residual = 1.02323e-07, Final residual = 9.43355e-21, No Iterations 845
time step continuity errors : sum local = 5.60909e-13, global = -3.7338e-16, cumulative = 9.28513e-14
DILUPBiCG:  Solving for nuTilda, Initial residual = 5.9135e-08, Final residual = 7.57722e-21, No Iterations 20
ExecutionTime = 406.54 s  ClockTime = 406 s

Time = 4876

DILUPBiCG:  Solving for Ux, Initial residual = 3.35021e-08, Final residual = 9.6278e-22, No Iterations 20
DILUPBiCG:  Solving for Uy, Initial residual = 1.02467e-06, Final residual = 2.49725e-21, No Iterations 22
DICPCG:  Solving for p, Initial residual = 1.02166e-07, Final residual = 9.40066e-21, No Iterations 845
time step continuity errors : sum local = 5.41574e-13, global = 1.0441e-16, cumulative = 9.29557e-14
DILUPBiCG:  Solving for nuTilda, Initial residual = 5.90263e-08, Final residual = 7.56408e-21, No Iterations 20
ExecutionTime = 406.61 s  ClockTime = 406 s

Time = 4877

DILUPBiCG:  Solving for Ux, Initial residual = 3.34426e-08, Final residual = 9.60975e-22, No Iterations 20
DILUPBiCG:  Solving for Uy, Initial residual = 1.02296e-06, Final residual = 2.50486e-21, No Iterations 22
DICPCG:  Solving for p, Initial residual = 1.0201e-07, Final residual = 9.44765e-21, No Iterations 845
time step continuity errors : sum local = 5.53576e-13, global = -2.53284e-15, cumulative = 9.04229e-14
DILUPBiCG:  Solving for nuTilda, Initial residual = 5.89179e-08, Final residual = 7.55095e-21, No Iterations 20
ExecutionTime = 406.69 s  ClockTime = 406 s

Time = 4878

DILUPBiCG:  Solving for Ux, Initial residual = 3.33831e-08, Final residual = 9.59148e-22, No Iterations 20
DILUPBiCG:  Solving for Uy, Initial residual = 1.02125e-06, Final residual = 2.51214e-21, No Iterations 22
DICPCG:  Solving for p, Initial residual = 1.01853e-07, Final residual = 9.39562e-21, No Iterations 845
time step continuity errors : sum local = 5.63715e-13, global = 1.36586e-15, cumulative = 9.17888e-14
DILUPBiCG:  Solving for nuTilda, Initial residual = 5.88096e-08, Final residual = 7.53785e-21, No Iterations 20
ExecutionTime = 406.76 s  ClockTime = 406 s

Time = 4879

DILUPBiCG:  Solving for Ux, Initial residual = 3.33237e-08, Final residual = 9.57342e-22, No Iterations 20
DILUPBiCG:  Solving for Uy, Initial residual = 1.01955e-06, Final residual = 2.51977e-21, No Iterations 22
DICPCG:  Solving for p, Initial residual = 1.01697e-07, Final residual = 9.38981e-21, No Iterations 845
time step continuity errors : sum local = 5.4327e-13, global = 3.98264e-16, cumulative = 9.2187e-14
DILUPBiCG:  Solving for nuTilda, Initial residual = 5.87016e-08, Final residual = 7.52476e-21, No Iterations 20
ExecutionTime = 406.83 s  ClockTime = 406 s

Time = 4880

DILUPBiCG:  Solving for Ux, Initial residual = 3.32644e-08, Final residual = 9.55532e-22, No Iterations 20
DILUPBiCG:  Solving for Uy, Initial residual = 1.01785e-06, Final residual = 2.52741e-21, No Iterations 22
DICPCG:  Solving for p, Initial residual = 1.01541e-07, Final residual = 9.42795e-21, No Iterations 845
time step continuity errors : sum local = 5.56565e-13, global = 7.47512e-16, cumulative = 9.29345e-14
DILUPBiCG:  Solving for nuTilda, Initial residual = 5.85937e-08, Final residual = 7.51169e-21, No Iterations 20
ExecutionTime = 406.91 s  ClockTime = 407 s

Time = 4881

DILUPBiCG:  Solving for Ux, Initial residual = 3.32052e-08, Final residual = 9.53718e-22, No Iterations 20
DILUPBiCG:  Solving for Uy, Initial residual = 1.01615e-06, Final residual = 2.53541e-21, No Iterations 22
DICPCG:  Solving for p, Initial residual = 1.01386e-07, Final residual = 9.45255e-21, No Iterations 845
time step continuity errors : sum local = 5.32958e-13, global = -6.12259e-16, cumulative = 9.23223e-14
DILUPBiCG:  Solving for nuTilda, Initial residual = 5.8486e-08, Final residual = 7.49864e-21, No Iterations 20
ExecutionTime = 406.98 s  ClockTime = 407 s

Time = 4882

DILUPBiCG:  Solving for Ux, Initial residual = 3.31461e-08, Final residual = 9.51915e-22, No Iterations 20
DILUPBiCG:  Solving for Uy, Initial residual = 1.01445e-06, Final residual = 2.54291e-21, No Iterations 22
DICPCG:  Solving for p, Initial residual = 1.0123e-07, Final residual = 9.43321e-21, No Iterations 845
time step continuity errors : sum local = 5.58313e-13, global = 7.46838e-16, cumulative = 9.30691e-14
DILUPBiCG:  Solving for nuTilda, Initial residual = 5.83786e-08, Final residual = 7.48562e-21, No Iterations 20
ExecutionTime = 407.05 s  ClockTime = 407 s

Time = 4883

DILUPBiCG:  Solving for Ux, Initial residual = 3.30872e-08, Final residual = 9.50114e-22, No Iterations 20
DILUPBiCG:  Solving for Uy, Initial residual = 1.01276e-06, Final residual = 2.55049e-21, No Iterations 22
DICPCG:  Solving for p, Initial residual = 1.01075e-07, Final residual = 9.41086e-21, No Iterations 845
time step continuity errors : sum local = 5.53212e-13, global = 6.17045e-16, cumulative = 9.36862e-14
DILUPBiCG:  Solving for nuTilda, Initial residual = 5.82713e-08, Final residual = 7.47262e-21, No Iterations 20
ExecutionTime = 407.13 s  ClockTime = 407 s

Time = 4884

DILUPBiCG:  Solving for Ux, Initial residual = 3.30283e-08, Final residual = 9.48327e-22, No Iterations 20
DILUPBiCG:  Solving for Uy, Initial residual = 1.01107e-06, Final residual = 2.55838e-21, No Iterations 22
DICPCG:  Solving for p, Initial residual = 1.0092e-07, Final residual = 9.35857e-21, No Iterations 845
time step continuity errors : sum local = 5.47305e-13, global = 2.20168e-15, cumulative = 9.58878e-14
DILUPBiCG:  Solving for nuTilda, Initial residual = 5.81642e-08, Final residual = 7.45963e-21, No Iterations 20
ExecutionTime = 407.2 s  ClockTime = 407 s

Time = 4885

DILUPBiCG:  Solving for Ux, Initial residual = 3.29695e-08, Final residual = 9.46533e-22, No Iterations 20
DILUPBiCG:  Solving for Uy, Initial residual = 1.00938e-06, Final residual = 2.56627e-21, No Iterations 22
DICPCG:  Solving for p, Initial residual = 1.00765e-07, Final residual = 9.48943e-21, No Iterations 845
time step continuity errors : sum local = 5.47204e-13, global = 2.00636e-15, cumulative = 9.78942e-14
DILUPBiCG:  Solving for nuTilda, Initial residual = 5.80573e-08, Final residual = 7.44667e-21, No Iterations 20
ExecutionTime = 407.27 s  ClockTime = 407 s

Time = 4886

DILUPBiCG:  Solving for Ux, Initial residual = 3.29108e-08, Final residual = 9.44751e-22, No Iterations 20
DILUPBiCG:  Solving for Uy, Initial residual = 1.0077e-06, Final residual = 2.57397e-21, No Iterations 22
DICPCG:  Solving for p, Initial residual = 1.00611e-07, Final residual = 9.4388e-21, No Iterations 845
time step continuity errors : sum local = 5.49814e-13, global = -2.28832e-15, cumulative = 9.56059e-14
DILUPBiCG:  Solving for nuTilda, Initial residual = 5.79506e-08, Final residual = 7.43372e-21, No Iterations 20
ExecutionTime = 407.34 s  ClockTime = 407 s

Time = 4887

DILUPBiCG:  Solving for Ux, Initial residual = 3.28523e-08, Final residual = 9.42969e-22, No Iterations 20
DILUPBiCG:  Solving for Uy, Initial residual = 1.00602e-06, Final residual = 2.58182e-21, No Iterations 22
DICPCG:  Solving for p, Initial residual = 1.00456e-07, Final residual = 9.37541e-21, No Iterations 845
time step continuity errors : sum local = 5.57181e-13, global = -9.03097e-16, cumulative = 9.47028e-14
DILUPBiCG:  Solving for nuTilda, Initial residual = 5.78441e-08, Final residual = 7.4208e-21, No Iterations 20
ExecutionTime = 407.42 s  ClockTime = 407 s

Time = 4888

DILUPBiCG:  Solving for Ux, Initial residual = 3.27938e-08, Final residual = 9.41186e-22, No Iterations 20
DILUPBiCG:  Solving for Uy, Initial residual = 1.00434e-06, Final residual = 2.58961e-21, No Iterations 22
DICPCG:  Solving for p, Initial residual = 1.00302e-07, Final residual = 9.39536e-21, No Iterations 845
time step continuity errors : sum local = 5.63155e-13, global = 7.20956e-16, cumulative = 9.54237e-14
DILUPBiCG:  Solving for nuTilda, Initial residual = 5.77377e-08, Final residual = 7.4079e-21, No Iterations 20
ExecutionTime = 407.49 s  ClockTime = 407 s

Time = 4889

DILUPBiCG:  Solving for Ux, Initial residual = 3.27354e-08, Final residual = 9.3942e-22, No Iterations 20
DILUPBiCG:  Solving for Uy, Initial residual = 1.00266e-06, Final residual = 2.59719e-21, No Iterations 22
DICPCG:  Solving for p, Initial residual = 1.00148e-07, Final residual = 9.30979e-21, No Iterations 845
time step continuity errors : sum local = 5.58704e-13, global = 3.31061e-18, cumulative = 9.5427e-14
DILUPBiCG:  Solving for nuTilda, Initial residual = 5.76316e-08, Final residual = 7.39502e-21, No Iterations 20
ExecutionTime = 407.56 s  ClockTime = 407 s

Time = 4890

DILUPBiCG:  Solving for Ux, Initial residual = 3.26772e-08, Final residual = 9.37639e-22, No Iterations 20
DILUPBiCG:  Solving for Uy, Initial residual = 1.00098e-06, Final residual = 2.60476e-21, No Iterations 22
DICPCG:  Solving for p, Initial residual = 9.99949e-08, Final residual = 9.50515e-21, No Iterations 845
time step continuity errors : sum local = 5.57361e-13, global = -2.16205e-15, cumulative = 9.3265e-14
DILUPBiCG:  Solving for nuTilda, Initial residual = 5.75256e-08, Final residual = 7.38215e-21, No Iterations 20
ExecutionTime = 407.63 s  ClockTime = 407 s

Time = 4891

DILUPBiCG:  Solving for Ux, Initial residual = 3.2619e-08, Final residual = 9.35872e-22, No Iterations 20
DILUPBiCG:  Solving for Uy, Initial residual = 9.99313e-07, Final residual = 2.61277e-21, No Iterations 22
DICPCG:  Solving for p, Initial residual = 9.98414e-08, Final residual = 9.36293e-21, No Iterations 845
time step continuity errors : sum local = 5.67969e-13, global = -4.66319e-15, cumulative = 8.86018e-14
DILUPBiCG:  Solving for nuTilda, Initial residual = 5.74199e-08, Final residual = 7.36931e-21, No Iterations 20
ExecutionTime = 407.71 s  ClockTime = 407 s


SIMPLE solution converged in 4891 iterations

End

Finalising parallel run
